version 3
run General-0-20230324-05:56:52-21712
attr configname General
attr datetime 20230324-05:56:52
attr datetimef 20230324-055652
attr experiment General
attr inifile omnetpp.ini
attr iterationvars ""
attr iterationvarsd ""
attr iterationvarsf ""
attr measurement ""
attr network RoutingScenario
attr processid 21712
attr repetition 0
attr replication #0
attr resultdir results
attr runnumber 0
attr seedset 0
config image-path ../../../inet4.4/images:../../../veins-veins-5.2/images
config network RoutingScenario
config sim-time-limit 600s
config debug-on-errors true
config cmdenv-express-mode true
config image-path ../../../../images
config *.node[*].numApps 1
config *.node[*].app[0].typename UdpBasicApp
config *.node[*].app[0].destAddresses "\"node[*]\""
config *.node[*].app[0].destPort 5000
config *.node[*].app[0].messageLength 1000B
config *.node[*].app[0].sendInterval exponential(12ms)
config *.node[*].app[0].packetName "\"UDPData\""
config *.node[*].wlan[0].opMode "\"p\""
config *.node[*].wlan[0].radio.bandName "\"5.9 GHz\""
config *.node[*].wlan[0].radio.channelNumber 3
config *.node[*].wlan[0].radio.transmitter.power 20mW
config *.node[*].wlan[0].radio.bandwidth "10 MHz"
config *.node[*].ipv4.configurator.typename HostAutoConfigurator
config *.node[*].ipv4.configurator.interfaces "\"wlan0\""
config *.node[*].ipv4.configurator.mcastGroups "\"224.0.0.1\""
config *.node[*].mobility.typename VeinsInetMobility
config *.manager.updateInterval 0.1s
config *.manager.host "\"localhost\""
config *.manager.port 9999
config *.manager.autoShutdown true
config *.manager.launchConfig "xmldoc(\"square.launchd.xml\")"
config *.manager.moduleType "\"vanet.veins_inet.VeinsInetRoutingCar\""
config **.vector-recording true
config **.router "\"Aodv\""

par RoutingScenario.radioMedium.propagation typename "\"inet.physicallayer.wireless.common.propagation.ConstantSpeedPropagation\""
par RoutingScenario.radioMedium.propagation propagationSpeed 2.99792e+08mps
attr unit mps
par RoutingScenario.radioMedium.propagation ignoreMovementDuringTransmission true
par RoutingScenario.radioMedium.propagation ignoreMovementDuringPropagation true
par RoutingScenario.radioMedium.propagation ignoreMovementDuringReception true
scalar RoutingScenario.radioMedium.propagation "Arrival computation count" 266
par RoutingScenario.radioMedium.analogModel typename "\"inet.physicallayer.wireless.common.analogmodel.packetlevel.ScalarAnalogModel\""
par RoutingScenario.radioMedium.analogModel ignorePartialInterference false
par RoutingScenario.radioMedium.backgroundNoise typename "\"inet.physicallayer.wireless.common.backgroundnoise.IsotropicScalarBackgroundNoise\""
par RoutingScenario.radioMedium.backgroundNoise power -110dBm
attr unit dBm
par RoutingScenario.radioMedium.backgroundNoise bandwidth "nan Hz"
attr unit Hz
par RoutingScenario.radioMedium.pathLoss typename "\"inet.physicallayer.wireless.common.pathloss.FreeSpacePathLoss\""
par RoutingScenario.radioMedium.pathLoss alpha 2
par RoutingScenario.radioMedium.pathLoss systemLoss 0dB
attr unit dB
par RoutingScenario.radioMedium.mediumLimitCache typename "\"inet.physicallayer.wireless.common.medium.MediumLimitCache\""
par RoutingScenario.radioMedium.mediumLimitCache centerFrequency 2.4e+09Hz
attr unit Hz
par RoutingScenario.radioMedium.mediumLimitCache maxSpeed "nan mps"
attr unit mps
par RoutingScenario.radioMedium.mediumLimitCache maxTransmissionPower "nan W"
attr unit W
par RoutingScenario.radioMedium.mediumLimitCache minInterferencePower -110dBm
attr unit dBm
par RoutingScenario.radioMedium.mediumLimitCache minReceptionPower -85dBm
attr unit dBm
par RoutingScenario.radioMedium.mediumLimitCache maxAntennaGain 0dB
attr unit dB
par RoutingScenario.radioMedium.mediumLimitCache minInterferenceTime 1e-12s
attr unit s
par RoutingScenario.radioMedium.mediumLimitCache maxTransmissionDuration 0.01s
attr unit s
par RoutingScenario.radioMedium.mediumLimitCache maxCommunicationRange "nan m"
attr unit m
par RoutingScenario.radioMedium.mediumLimitCache maxInterferenceRange "nan m"
attr unit m
par RoutingScenario.radioMedium.communicationCache typename "\"inet.physicallayer.wireless.common.communicationcache.VectorCommunicationCache\""
par RoutingScenario.radioMedium typename "\"inet.physicallayer.wireless.ieee80211.packetlevel.Ieee80211ScalarRadioMedium\""
par RoutingScenario.radioMedium physicalEnvironmentModule "\"physicalEnvironment\""
par RoutingScenario.radioMedium signalAnalogRepresentation "\"scalar\""
attr enum unitDisk,scalar,dimensional
par RoutingScenario.radioMedium rangeFilter "\"\""
par RoutingScenario.radioMedium radioModeFilter false
par RoutingScenario.radioMedium listeningFilter false
par RoutingScenario.radioMedium macAddressFilter false
par RoutingScenario.radioMedium recordTransmissionLog false
par RoutingScenario.radioMedium recordReceptionLog false
scalar RoutingScenario.radioMedium "transmission count" 266
scalar RoutingScenario.radioMedium "signal send count" 266
scalar RoutingScenario.radioMedium "reception computation count" 266
scalar RoutingScenario.radioMedium "interference computation count" 1068
scalar RoutingScenario.radioMedium "reception decision computation count" 266
scalar RoutingScenario.radioMedium "listening decision computation count" 536
scalar RoutingScenario.radioMedium "reception cache hit" 85.714285714286
attr unit %
scalar RoutingScenario.radioMedium "interference cache hit" 66.666666666667
attr unit %
scalar RoutingScenario.radioMedium "noise cache hit" 0
attr unit %
scalar RoutingScenario.radioMedium "snir cache hit" 50
attr unit %
scalar RoutingScenario.radioMedium "reception decision cache hit" 50
attr unit %
scalar RoutingScenario.radioMedium "reception result cache hit" 0
attr unit %
par RoutingScenario.manager typename "\"vanet.veins_inet.VeinsInetManager\""
par RoutingScenario.manager connectAt 0s
attr unit s
par RoutingScenario.manager firstStepAt -1s
attr unit s
par RoutingScenario.manager updateInterval 0.1s
attr unit s
par RoutingScenario.manager moduleType "\"vanet.veins_inet.VeinsInetRoutingCar\""
par RoutingScenario.manager moduleName "\"node\""
par RoutingScenario.manager moduleDisplayString "\"*='i=veins/node/car;is=vs'\""
par RoutingScenario.manager trafficLightModuleType "\"\""
par RoutingScenario.manager trafficLightModuleName "\"tls\""
par RoutingScenario.manager trafficLightFilter "\"\""
par RoutingScenario.manager trafficLightModuleDisplayString "\"i=misc/node2;is=vs;r=0,,#707070,1\""
par RoutingScenario.manager host "\"localhost\""
par RoutingScenario.manager port 9999
par RoutingScenario.manager seed -1
par RoutingScenario.manager autoShutdown true
par RoutingScenario.manager margin 25
par RoutingScenario.manager roiRoads "\"\""
par RoutingScenario.manager roiRects "\"\""
par RoutingScenario.manager penetrationRate 1
par RoutingScenario.manager ignoreGuiCommands false
par RoutingScenario.manager launchConfig "<launch>...</launch> at /home/simu5g/simu5g-workspace/vanet/simulations/v2v//square.launchd.xml:34"
scalar RoutingScenario.manager roiArea 0
par RoutingScenario.node[0].radioIn[0].channel typename "\"ned.IdealChannel\""
par RoutingScenario.node[0].mobility typename "\"vanet.veins_inet.VeinsInetMobility\""
par RoutingScenario.node[0].mobility subjectModule "\"^\""
par RoutingScenario.node[0].mobility coordinateSystemModule "\"\""
par RoutingScenario.node[0].mobility displayStringTextFormat "\"p: %p\\nv: %v\""
attr mutable ""
par RoutingScenario.node[0].mobility updateDisplayString true
par RoutingScenario.node[0].mobility constraintAreaMinX "-inf m"
attr unit m
par RoutingScenario.node[0].mobility constraintAreaMinY "-inf m"
attr unit m
par RoutingScenario.node[0].mobility constraintAreaMinZ "-inf m"
attr unit m
par RoutingScenario.node[0].mobility constraintAreaMaxX "inf m"
attr unit m
par RoutingScenario.node[0].mobility constraintAreaMaxY "inf m"
attr unit m
par RoutingScenario.node[0].mobility constraintAreaMaxZ "inf m"
attr unit m
par RoutingScenario.node[0].mobility initFromDisplayString true
par RoutingScenario.node[0].interfaceTable typename "\"inet.networklayer.common.InterfaceTable\""
par RoutingScenario.node[0].interfaceTable displayAddresses false
par RoutingScenario.node[0].cb typename "\"inet.common.MessageDispatcher\""
par RoutingScenario.node[0].cb displayStringTextFormat "\"processed %p pk (%l)\""
par RoutingScenario.node[0].cb forwardServiceRegistration true
par RoutingScenario.node[0].cb forwardProtocolRegistration true
par RoutingScenario.node[0].bl typename "\"inet.common.MessageDispatcher\""
par RoutingScenario.node[0].bl displayStringTextFormat "\"processed %p pk (%l)\""
par RoutingScenario.node[0].bl forwardServiceRegistration true
par RoutingScenario.node[0].bl forwardProtocolRegistration true
par RoutingScenario.node[0].li typename "\"inet.common.MessageDispatcher\""
par RoutingScenario.node[0].li displayStringTextFormat "\"processed %p pk (%l)\""
par RoutingScenario.node[0].li forwardServiceRegistration true
par RoutingScenario.node[0].li forwardProtocolRegistration true
par RoutingScenario.node[0].lo[0].upperLayerIn.channel typename "\"ned.IdealChannel\""
par RoutingScenario.node[0].lo[0].lo.upperLayerOut.channel typename "\"ned.IdealChannel\""
par RoutingScenario.node[0].lo[0].lo typename "\"inet.linklayer.loopback.Loopback\""
par RoutingScenario.node[0].lo[0].lo interfaceTableModule "\"RoutingScenario.node[0].interfaceTable\""
par RoutingScenario.node[0].lo[0].lo mtu 4470B
attr unit B
scalar RoutingScenario.node[0].lo[0].lo rcvdPkFromHl:count 493
attr interpolationmode none
attr recordingmode count
attr source packetReceivedFromUpper
attr title "packets received from higher layer, count"
scalar RoutingScenario.node[0].lo[0].lo rcvdPkFromHl:sum(packetBytes) 506804
attr interpolationmode none
attr recordingmode sum(packetBytes)
attr source packetReceivedFromUpper
attr title "packets received from higher layer, sum(packetBytes)"
scalar RoutingScenario.node[0].lo[0].lo passedUpPk:count 493
attr interpolationmode none
attr recordingmode count
attr source packetSentToUpper
attr title "packets passed to higher layer, count"
scalar RoutingScenario.node[0].lo[0].lo passedUpPk:sum(packetBytes) 506804
attr interpolationmode none
attr recordingmode sum(packetBytes)
attr source packetSentToUpper
attr title "packets passed to higher layer, sum(packetBytes)"
par RoutingScenario.node[0].lo[0] typename "\"inet.linklayer.loopback.LoopbackInterface\""
par RoutingScenario.node[0].lo[0] displayStringTextFormat "\"%a (%i)\\n%m\""
par RoutingScenario.node[0].lo[0] recordPcap false
par RoutingScenario.node[0].lo[0] numPcapRecorders 0
par RoutingScenario.node[0].lo[0] interfaceTableModule "\"RoutingScenario.node[0].interfaceTable\""
scalar RoutingScenario.node[0].lo[0] packetDropInterfaceDown:count 0
attr interpolationmode none
attr recordingmode count
attr source packetDropReasonIsInterfaceDown(packetDropped)
attr title "packet drops: interface down, count"
scalar RoutingScenario.node[0].lo[0] packetDropInterfaceDown:sum(packetBytes) 0
attr interpolationmode none
attr recordingmode sum(packetBytes)
attr source packetDropReasonIsInterfaceDown(packetDropped)
attr title "packet drops: interface down, sum(packetBytes)"
scalar RoutingScenario.node[0].lo[0] packetDropNoCarrier:count 0
attr interpolationmode none
attr recordingmode count
attr source packetDropReasonIsNoCarrier(packetDropped)
attr title "packet drops: no carrier, count"
scalar RoutingScenario.node[0].lo[0] packetDropNoCarrier:sum(packetBytes) 0
attr interpolationmode none
attr recordingmode sum(packetBytes)
attr source packetDropReasonIsNoCarrier(packetDropped)
attr title "packet drops: no carrier, sum(packetBytes)"
par RoutingScenario.node[0].wlan[0].radioIn.channel typename "\"ned.IdealChannel\""
par RoutingScenario.node[0].wlan[0].llc.upperLayerOut.channel typename "\"ned.IdealChannel\""
par RoutingScenario.node[0].wlan[0].upperLayerIn.channel typename "\"ned.IdealChannel\""
par RoutingScenario.node[0].wlan[0].mib typename "\"inet.linklayer.ieee80211.mib.Ieee80211Mib\""
par RoutingScenario.node[0].wlan[0].llc typename "\"inet.linklayer.ieee80211.llc.Ieee80211LlcEpd\""
par RoutingScenario.node[0].wlan[0].mgmt typename "\"inet.linklayer.ieee80211.mgmt.Ieee80211MgmtAdhoc\""
par RoutingScenario.node[0].wlan[0].mgmt mibModule "\"RoutingScenario.node[0].wlan[0].mib\""
par RoutingScenario.node[0].wlan[0].mgmt macModule "\"RoutingScenario.node[0].wlan[0].mac\""
par RoutingScenario.node[0].wlan[0].mgmt interfaceTableModule "\"RoutingScenario.node[0].interfaceTable\""
par RoutingScenario.node[0].wlan[0].mac.dcf.channelAccess.pendingQueue typename "\"inet.linklayer.ieee80211.mac.queue.PendingQueue\""
par RoutingScenario.node[0].wlan[0].mac.dcf.channelAccess.pendingQueue displayStringTextFormat "\"contains %p pk (%l) pushed %u\\npulled %o removed %r dropped %d\""
par RoutingScenario.node[0].wlan[0].mac.dcf.channelAccess.pendingQueue packetCapacity 100
par RoutingScenario.node[0].wlan[0].mac.dcf.channelAccess.pendingQueue dataCapacity -1b
attr unit b
par RoutingScenario.node[0].wlan[0].mac.dcf.channelAccess.pendingQueue dropperClass "\"inet::queueing::PacketAtCollectionEndDropper\""
par RoutingScenario.node[0].wlan[0].mac.dcf.channelAccess.pendingQueue comparatorClass "\"inet::ieee80211::MgmtOverDataComparator\""
par RoutingScenario.node[0].wlan[0].mac.dcf.channelAccess.pendingQueue bufferModule "\"\""
scalar RoutingScenario.node[0].wlan[0].mac.dcf.channelAccess.pendingQueue queueLength:last 0
attr autoWarmupFilter false
attr interpolationmode sample-hold
attr recordingmode last
attr source "warmup(atomic(constant0(packetPushEnded) + count(packetPushStarted) - count(packetPulled) - count(packetRemoved) - count(packetDropped)))"
attr title "queue length, last"
attr unit pk
scalar RoutingScenario.node[0].wlan[0].mac.dcf.channelAccess.pendingQueue queueLength:max 2
attr autoWarmupFilter false
attr interpolationmode sample-hold
attr recordingmode max
attr source "warmup(atomic(constant0(packetPushEnded) + count(packetPushStarted) - count(packetPulled) - count(packetRemoved) - count(packetDropped)))"
attr title "queue length, max"
attr unit pk
scalar RoutingScenario.node[0].wlan[0].mac.dcf.channelAccess.pendingQueue queueLength:timeavg 0.018298906631297
attr autoWarmupFilter false
attr interpolationmode sample-hold
attr recordingmode timeavg
attr source "warmup(atomic(constant0(packetPushEnded) + count(packetPushStarted) - count(packetPulled) - count(packetRemoved) - count(packetDropped)))"
attr title "queue length, timeavg"
attr unit pk
scalar RoutingScenario.node[0].wlan[0].mac.dcf.channelAccess.pendingQueue queueBitLength:last 0
attr autoWarmupFilter false
attr interpolationmode sample-hold
attr recordingmode last
attr source "warmup(atomic(constant0(packetPushEnded) + sum(packetLength(packetPushStarted)) - sum(packetLength(packetPulled)) - sum(packetLength(packetRemoved)) - sum(packetLength(packetDropped))))"
attr title "queue bit length, last"
attr unit b
scalar RoutingScenario.node[0].wlan[0].mac.dcf.channelAccess.pendingQueue queueBitLength:max 1376
attr autoWarmupFilter false
attr interpolationmode sample-hold
attr recordingmode max
attr source "warmup(atomic(constant0(packetPushEnded) + sum(packetLength(packetPushStarted)) - sum(packetLength(packetPulled)) - sum(packetLength(packetRemoved)) - sum(packetLength(packetDropped))))"
attr title "queue bit length, max"
attr unit b
scalar RoutingScenario.node[0].wlan[0].mac.dcf.channelAccess.pendingQueue queueBitLength:timeavg 12.524661377698
attr autoWarmupFilter false
attr interpolationmode sample-hold
attr recordingmode timeavg
attr source "warmup(atomic(constant0(packetPushEnded) + sum(packetLength(packetPushStarted)) - sum(packetLength(packetPulled)) - sum(packetLength(packetRemoved)) - sum(packetLength(packetDropped))))"
attr title "queue bit length, timeavg"
attr unit b
statistic RoutingScenario.node[0].wlan[0].mac.dcf.channelAccess.pendingQueue queueingTime:histogram
field count 67
field mean 0.0002564653119403
field stddev 0.00013280637517912
field min 0.000146
field max 0.0012131759
field sum 0.0171831759
field sqrsum 5.5709657643408e-06
attr interpolationmode none
attr recordingmode histogram
attr source queueingTime(packetPulled)
attr title "queueing times"
attr unit s
bin	-inf	0
bin	0	0
bin	2e-05	0
bin	4e-05	0
bin	6e-05	0
bin	8e-05	0
bin	0.0001	0
bin	0.00012	0
bin	0.00014	8
bin	0.00016	4
bin	0.00018	8
bin	0.0002	5
bin	0.00022	9
bin	0.00024	6
bin	0.00026	8
bin	0.00028	1
bin	0.0003	9
bin	0.00032	2
bin	0.00034	6
bin	0.00036	0
bin	0.00038	0
bin	0.0004	0
bin	0.00042	0
bin	0.00044	0
bin	0.00046	0
bin	0.00048	0
bin	0.0005	0
bin	0.00052	0
bin	0.00054	0
bin	0.00056	0
bin	0.00058	0
bin	0.0006	0
bin	0.00062	0
bin	0.00064	0
bin	0.00066	0
bin	0.00068	0
bin	0.0007	0
bin	0.00072	0
bin	0.00074	0
bin	0.00076	0
bin	0.00078	0
bin	0.0008	0
bin	0.00082	0
bin	0.00084	0
bin	0.00086	0
bin	0.00088	0
bin	0.0009	0
bin	0.00092	0
bin	0.00094	0
bin	0.00096	0
bin	0.00098	0
bin	0.001	0
bin	0.00102	0
bin	0.00104	0
bin	0.00106	0
bin	0.00108	0
bin	0.0011	0
bin	0.00112	0
bin	0.00114	0
bin	0.00116	0
bin	0.00118	0
bin	0.0012	1
bin	0.00122	0
bin	0.00124	0
bin	0.00126	0
bin	0.00128	0
bin	0.0013	0
bin	0.00132	0
bin	0.00134	0
bin	0.00136	0
bin	0.00138	0
bin	0.0014	0
bin	0.00142	0
bin	0.00144	0
bin	0.00146	0
bin	0.00148	0
scalar RoutingScenario.node[0].wlan[0].mac.dcf.channelAccess.pendingQueue outgoingPackets:count 67
attr recordingmode count
attr source packetPulled
attr title "outgoing packets, count"
attr unit pk
scalar RoutingScenario.node[0].wlan[0].mac.dcf.channelAccess.pendingQueue outgoingPacketLengths:sum 45808
attr interpolationmode none
attr recordingmode sum
attr source packetLength(packetPulled)
attr title "outgoing packet lengths, sum"
attr unit b
statistic RoutingScenario.node[0].wlan[0].mac.dcf.channelAccess.pendingQueue outgoingPacketLengths:histogram
field count 67
field mean 683.70149253731
field stddev 28.346885310903
field min 464
field max 688
field sum 45808
field sqrsum 31372032
attr interpolationmode none
attr recordingmode histogram
attr source packetLength(packetPulled)
attr title "outgoing packet lengths"
attr unit b
bin	-inf	0
bin	405	0
bin	410	0
bin	415	0
bin	420	0
bin	425	0
bin	430	0
bin	435	0
bin	440	0
bin	445	0
bin	450	0
bin	455	0
bin	460	1
bin	465	0
bin	470	0
bin	475	0
bin	480	0
bin	485	0
bin	490	0
bin	495	0
bin	500	0
bin	505	0
bin	510	0
bin	515	0
bin	520	0
bin	525	0
bin	530	0
bin	535	0
bin	540	0
bin	545	0
bin	550	0
bin	555	0
bin	560	0
bin	565	0
bin	570	0
bin	575	0
bin	580	0
bin	585	0
bin	590	0
bin	595	0
bin	600	0
bin	605	0
bin	610	0
bin	615	0
bin	620	1
bin	625	0
bin	630	0
bin	635	0
bin	640	0
bin	645	0
bin	650	0
bin	655	0
bin	660	0
bin	665	0
bin	670	0
bin	675	0
bin	680	0
bin	685	65
bin	690	0
bin	695	0
bin	700	0
bin	705	0
bin	710	0
bin	715	0
bin	720	0
bin	725	0
bin	730	0
bin	735	0
bin	740	0
bin	745	0
statistic RoutingScenario.node[0].wlan[0].mac.dcf.channelAccess.pendingQueue flowQueueingTime:histogram
field count 0
field mean -nan
field stddev nan
field min nan
field max nan
field sum 0
field sqrsum 0
attr interpolationmode none
attr recordingmode histogram
attr source queueingTime(demuxFlow(packetPulled))
attr title "flow queueing times"
attr unit s
bin	-inf	0
bin	0	0
bin	1	0
scalar RoutingScenario.node[0].wlan[0].mac.dcf.channelAccess.pendingQueue incomingPackets:count 67
attr recordingmode count
attr source packetPushStarted
attr title "incoming packets, count"
attr unit pk
scalar RoutingScenario.node[0].wlan[0].mac.dcf.channelAccess.pendingQueue incomingPacketLengths:sum 45808
attr interpolationmode none
attr recordingmode sum
attr source packetLength(packetPushStarted)
attr title "incoming packet lengths, sum"
attr unit b
statistic RoutingScenario.node[0].wlan[0].mac.dcf.channelAccess.pendingQueue incomingPacketLengths:histogram
field count 67
field mean 683.70149253731
field stddev 28.346885310903
field min 464
field max 688
field sum 45808
field sqrsum 31372032
attr interpolationmode none
attr recordingmode histogram
attr source packetLength(packetPushStarted)
attr title "incoming packet lengths"
attr unit b
bin	-inf	0
bin	405	0
bin	410	0
bin	415	0
bin	420	0
bin	425	0
bin	430	0
bin	435	0
bin	440	0
bin	445	0
bin	450	0
bin	455	0
bin	460	1
bin	465	0
bin	470	0
bin	475	0
bin	480	0
bin	485	0
bin	490	0
bin	495	0
bin	500	0
bin	505	0
bin	510	0
bin	515	0
bin	520	0
bin	525	0
bin	530	0
bin	535	0
bin	540	0
bin	545	0
bin	550	0
bin	555	0
bin	560	0
bin	565	0
bin	570	0
bin	575	0
bin	580	0
bin	585	0
bin	590	0
bin	595	0
bin	600	0
bin	605	0
bin	610	0
bin	615	0
bin	620	1
bin	625	0
bin	630	0
bin	635	0
bin	640	0
bin	645	0
bin	650	0
bin	655	0
bin	660	0
bin	665	0
bin	670	0
bin	675	0
bin	680	0
bin	685	65
bin	690	0
bin	695	0
bin	700	0
bin	705	0
bin	710	0
bin	715	0
bin	720	0
bin	725	0
bin	730	0
bin	735	0
bin	740	0
bin	745	0
scalar RoutingScenario.node[0].wlan[0].mac.dcf.channelAccess.pendingQueue droppedPacketsQueueOverflow:count 0
attr interpolationmode none
attr recordingmode count
attr source packetDropReasonIsQueueOverflow(packetDropped)
attr title "dropped packets: queue overflow, count"
attr unit pk
scalar RoutingScenario.node[0].wlan[0].mac.dcf.channelAccess.pendingQueue droppedPacketLengthsQueueOverflow:sum 0
attr interpolationmode none
attr recordingmode sum
attr source packetLength(packetDropReasonIsQueueOverflow(packetDropped))
attr title "dropped packet lengths: queue overflow, sum"
attr unit b
par RoutingScenario.node[0].wlan[0].mac.dcf.channelAccess.inProgressFrames typename "\"inet.linklayer.ieee80211.mac.queue.InProgressFrames\""
par RoutingScenario.node[0].wlan[0].mac.dcf.channelAccess.inProgressFrames pendingQueueModule "\"^.pendingQueue\""
par RoutingScenario.node[0].wlan[0].mac.dcf.channelAccess.inProgressFrames originatorMacDataServiceModule "\"^.^.originatorMacDataService\""
par RoutingScenario.node[0].wlan[0].mac.dcf.channelAccess.inProgressFrames ackHandlerModule "\"^.^.ackHandler\""
statistic RoutingScenario.node[0].wlan[0].mac.dcf.channelAccess.inProgressFrames queueingTime:histogram
field count 67
field mean 0.00019717465573134
field stddev 5.6060587841095e-05
field min 8.8e-05
field max 0.0006373518
field sum 0.013210701934
field sqrsum 2.8122397134057e-06
attr interpolationmode none
attr recordingmode histogram
attr source queueingTime(packetDequeued)
attr title "queueing times"
bin	-inf	0
bin	0	0
bin	1e-05	0
bin	2e-05	0
bin	3e-05	0
bin	4e-05	0
bin	5e-05	0
bin	6e-05	0
bin	7e-05	0
bin	8e-05	1
bin	9e-05	0
bin	0.0001	0
bin	0.00011	0
bin	0.00012	0
bin	0.00013	0
bin	0.00014	0
bin	0.00015	0
bin	0.00016	0
bin	0.00017	0
bin	0.00018	1
bin	0.00019	64
bin	0.0002	0
bin	0.00021	0
bin	0.00022	0
bin	0.00023	0
bin	0.00024	0
bin	0.00025	0
bin	0.00026	0
bin	0.00027	0
bin	0.00028	0
bin	0.00029	0
bin	0.0003	0
bin	0.00031	0
bin	0.00032	0
bin	0.00033	0
bin	0.00034	0
bin	0.00035	0
bin	0.00036	0
bin	0.00037	0
bin	0.00038	0
bin	0.00039	0
bin	0.0004	0
bin	0.00041	0
bin	0.00042	0
bin	0.00043	0
bin	0.00044	0
bin	0.00045	0
bin	0.00046	0
bin	0.00047	0
bin	0.00048	0
bin	0.00049	0
bin	0.0005	0
bin	0.00051	0
bin	0.00052	0
bin	0.00053	0
bin	0.00054	0
bin	0.00055	0
bin	0.00056	0
bin	0.00057	0
bin	0.00058	0
bin	0.00059	0
bin	0.0006	0
bin	0.00061	0
bin	0.00062	0
bin	0.00063	1
bin	0.00064	0
bin	0.00065	0
bin	0.00066	0
bin	0.00067	0
bin	0.00068	0
bin	0.00069	0
bin	0.0007	0
bin	0.00071	0
bin	0.00072	0
bin	0.00073	0
bin	0.00074	0
bin	0.00075	0
bin	0.00076	0
bin	0.00077	0
bin	0.00078	0
scalar RoutingScenario.node[0].wlan[0].mac.dcf.channelAccess.inProgressFrames queueLength:max 2
attr autoWarmupFilter false
attr interpolationmode sample-hold
attr recordingmode max
attr source "warmup(count(packetEnqueued) - count(packetDequeued))"
attr title "queue length, max"
scalar RoutingScenario.node[0].wlan[0].mac.dcf.channelAccess.inProgressFrames queueLength:timeavg 0.0022228833665381
attr autoWarmupFilter false
attr interpolationmode sample-hold
attr recordingmode timeavg
attr source "warmup(count(packetEnqueued) - count(packetDequeued))"
attr title "queue length, timeavg"
par RoutingScenario.node[0].wlan[0].mac.dcf.channelAccess.contention typename "\"inet.linklayer.ieee80211.mac.contention.Contention\""
par RoutingScenario.node[0].wlan[0].mac.dcf.channelAccess.contention initialChannelBusy true
par RoutingScenario.node[0].wlan[0].mac.dcf.channelAccess.contention backoffOptimization true
scalar RoutingScenario.node[0].wlan[0].mac.dcf.channelAccess.contention channelAccessGranted:count 67
attr recordingmode count
attr title "channel access granted, count"
scalar RoutingScenario.node[0].wlan[0].mac.dcf.channelAccess.contention stateChanged:count 1070
attr enum IDLE,DEFER,IFS_AND_BACKOFF
attr interpolationmode none
attr recordingmode count
attr title "contention state changed, count"
attr type enum
par RoutingScenario.node[0].wlan[0].mac.dcf.channelAccess typename "\"inet.linklayer.ieee80211.mac.channelaccess.Dcaf\""
par RoutingScenario.node[0].wlan[0].mac.dcf.channelAccess difsn -1
par RoutingScenario.node[0].wlan[0].mac.dcf.channelAccess cwMin -1
par RoutingScenario.node[0].wlan[0].mac.dcf.channelAccess cwMax -1
par RoutingScenario.node[0].wlan[0].mac.dcf.channelAccess rxModule "\"^.^.rx\""
scalar RoutingScenario.node[0].wlan[0].mac.dcf.channelAccess channelOwnershipChanged:count 134
attr interpolationmode sample-hold
attr recordingmode count
attr title "channel ownership, count"
par RoutingScenario.node[0].wlan[0].mac.dcf.originatorMacDataService.fragmentationPolicy typename "\"inet.linklayer.ieee80211.mac.fragmentation.BasicFragmentationPolicy\""
par RoutingScenario.node[0].wlan[0].mac.dcf.originatorMacDataService.fragmentationPolicy fragmentationThreshold 1500B
attr unit B
par RoutingScenario.node[0].wlan[0].mac.dcf.originatorMacDataService typename "\"inet.linklayer.ieee80211.mac.originator.OriginatorMacDataService\""
scalar RoutingScenario.node[0].wlan[0].mac.dcf.originatorMacDataService packetAggregated:count 0
attr recordingmode count
attr title "packets aggregated, count"
scalar RoutingScenario.node[0].wlan[0].mac.dcf.originatorMacDataService packetFragmented:count 0
attr recordingmode count
attr title "packets fragmented, count"
par RoutingScenario.node[0].wlan[0].mac.dcf.recipientMacDataService typename "\"inet.linklayer.ieee80211.mac.recipient.RecipientMacDataService\""
scalar RoutingScenario.node[0].wlan[0].mac.dcf.recipientMacDataService packetDeaggregated:count 0
attr recordingmode count
attr title "packets deaggregated, count"
scalar RoutingScenario.node[0].wlan[0].mac.dcf.recipientMacDataService packetDefragmented:count 67
attr recordingmode count
attr title "packets defragmented, count"
scalar RoutingScenario.node[0].wlan[0].mac.dcf.recipientMacDataService packetDropDuplicateDetected:count 0
attr interpolationmode none
attr recordingmode count
attr source packetDropReasonIsDuplicateDetected(packetDropped)
attr title "packet drops: duplicate detected, count"
scalar RoutingScenario.node[0].wlan[0].mac.dcf.recipientMacDataService packetDropDuplicateDetected:sum(packetBytes) 0
attr interpolationmode none
attr recordingmode sum(packetBytes)
attr source packetDropReasonIsDuplicateDetected(packetDropped)
attr title "packet drops: duplicate detected, sum(packetBytes)"
par RoutingScenario.node[0].wlan[0].mac.dcf.rateSelection typename "\"inet.linklayer.ieee80211.mac.rateselection.RateSelection\""
par RoutingScenario.node[0].wlan[0].mac.dcf.rateSelection rateControlModule "\"^.rateControl\""
par RoutingScenario.node[0].wlan[0].mac.dcf.rateSelection multicastFrameBitrate -1bps
attr unit bps
par RoutingScenario.node[0].wlan[0].mac.dcf.rateSelection responseAckFrameBitrate -1bps
attr unit bps
par RoutingScenario.node[0].wlan[0].mac.dcf.rateSelection responseCtsFrameBitrate -1bps
attr unit bps
par RoutingScenario.node[0].wlan[0].mac.dcf.rateSelection dataFrameBitrate -1bps
attr unit bps
par RoutingScenario.node[0].wlan[0].mac.dcf.rateSelection dataFrameBandwidth "nan Hz"
attr unit Hz
par RoutingScenario.node[0].wlan[0].mac.dcf.rateSelection dataFrameNumSpatialStreams -1
par RoutingScenario.node[0].wlan[0].mac.dcf.rateSelection mgmtFrameBitrate -1bps
attr unit bps
par RoutingScenario.node[0].wlan[0].mac.dcf.rateSelection controlFrameBitrate -1bps
attr unit bps
par RoutingScenario.node[0].wlan[0].mac.dcf.recoveryProcedure typename "\"inet.linklayer.ieee80211.mac.originator.NonQosRecoveryProcedure\""
par RoutingScenario.node[0].wlan[0].mac.dcf.recoveryProcedure cwCalculatorModule "\"^.channelAccess\""
par RoutingScenario.node[0].wlan[0].mac.dcf.recoveryProcedure rtsPolicyModule "\"^.rtsPolicy\""
par RoutingScenario.node[0].wlan[0].mac.dcf.recoveryProcedure shortRetryLimit 7
par RoutingScenario.node[0].wlan[0].mac.dcf.recoveryProcedure longRetryLimit 4
scalar RoutingScenario.node[0].wlan[0].mac.dcf.recoveryProcedure retryLimitReached:count 0
attr recordingmode count
attr title "retry limit reached, count"
par RoutingScenario.node[0].wlan[0].mac.dcf.originatorProtectionMechanism typename "\"inet.linklayer.ieee80211.mac.protectionmechanism.OriginatorProtectionMechanism\""
par RoutingScenario.node[0].wlan[0].mac.dcf.originatorProtectionMechanism rateSelectionModule "\"^.rateSelection\""
par RoutingScenario.node[0].wlan[0].mac.dcf.ackHandler typename "\"inet.linklayer.ieee80211.mac.originator.AckHandler\""
par RoutingScenario.node[0].wlan[0].mac.dcf.originatorAckPolicy typename "\"inet.linklayer.ieee80211.mac.originator.OriginatorAckPolicy\""
par RoutingScenario.node[0].wlan[0].mac.dcf.originatorAckPolicy rateSelectionModule "\"^.rateSelection\""
par RoutingScenario.node[0].wlan[0].mac.dcf.originatorAckPolicy ackTimeout -1s
attr unit s
par RoutingScenario.node[0].wlan[0].mac.dcf.recipientAckPolicy typename "\"inet.linklayer.ieee80211.mac.recipient.RecipientAckPolicy\""
par RoutingScenario.node[0].wlan[0].mac.dcf.recipientAckPolicy rateSelectionModule "\"^.rateSelection\""
par RoutingScenario.node[0].wlan[0].mac.dcf.rtsPolicy typename "\"inet.linklayer.ieee80211.mac.originator.RtsPolicy\""
par RoutingScenario.node[0].wlan[0].mac.dcf.rtsPolicy rateSelectionModule "\"^.rateSelection\""
par RoutingScenario.node[0].wlan[0].mac.dcf.rtsPolicy ctsTimeout -1s
attr unit s
par RoutingScenario.node[0].wlan[0].mac.dcf.rtsPolicy rtsThreshold 2346B
attr unit B
par RoutingScenario.node[0].wlan[0].mac.dcf.ctsPolicy typename "\"inet.linklayer.ieee80211.mac.recipient.CtsPolicy\""
par RoutingScenario.node[0].wlan[0].mac.dcf.ctsPolicy rxModule "\"^.^.rx\""
par RoutingScenario.node[0].wlan[0].mac.dcf.ctsPolicy rateSelectionModule "\"^.rateSelection\""
par RoutingScenario.node[0].wlan[0].mac.dcf typename "\"inet.linklayer.ieee80211.mac.coordinationfunction.Dcf\""
par RoutingScenario.node[0].wlan[0].mac.dcf rxModule "\"^.rx\""
par RoutingScenario.node[0].wlan[0].mac.dcf txModule "\"^.tx\""
scalar RoutingScenario.node[0].wlan[0].mac.dcf frameSequenceFinished:count 67
attr recordingmode count
attr title "finished frame sequences, count"
statistic RoutingScenario.node[0].wlan[0].mac.dcf frameSequenceDuration:histogram
field count 67
field mean 0.00019053023931343
field stddev 1.2753634516682e-05
field min 8.8e-05
field max 0.000192233486
field sum 0.012765526034
field sqrsum 2.4429539729833e-06
attr recordingmode histogram
attr source frameSequenceDuration(frameSequenceFinished)
attr title "frame sequence durations"
bin	-inf	0
bin	6e-05	0
bin	6.2e-05	0
bin	6.4e-05	0
bin	6.6e-05	0
bin	6.8e-05	0
bin	7e-05	0
bin	7.2e-05	0
bin	7.4e-05	0
bin	7.6e-05	0
bin	7.8e-05	0
bin	8e-05	0
bin	8.2e-05	0
bin	8.4e-05	0
bin	8.6e-05	1
bin	8.8e-05	0
bin	9e-05	0
bin	9.2e-05	0
bin	9.4e-05	0
bin	9.6e-05	0
bin	9.8e-05	0
bin	0.0001	0
bin	0.000102	0
bin	0.000104	0
bin	0.000106	0
bin	0.000108	0
bin	0.00011	0
bin	0.000112	0
bin	0.000114	0
bin	0.000116	0
bin	0.000118	0
bin	0.00012	0
bin	0.000122	0
bin	0.000124	0
bin	0.000126	0
bin	0.000128	0
bin	0.00013	0
bin	0.000132	0
bin	0.000134	0
bin	0.000136	0
bin	0.000138	0
bin	0.00014	0
bin	0.000142	0
bin	0.000144	0
bin	0.000146	0
bin	0.000148	0
bin	0.00015	0
bin	0.000152	0
bin	0.000154	0
bin	0.000156	0
bin	0.000158	0
bin	0.00016	0
bin	0.000162	0
bin	0.000164	0
bin	0.000166	0
bin	0.000168	0
bin	0.00017	0
bin	0.000172	0
bin	0.000174	0
bin	0.000176	0
bin	0.000178	0
bin	0.00018	0
bin	0.000182	0
bin	0.000184	1
bin	0.000186	0
bin	0.000188	0
bin	0.00019	0
bin	0.000192	65
bin	0.000194	0
bin	0.000196	0
bin	0.000198	0
bin	0.0002	0
bin	0.000202	0
bin	0.000204	0
bin	0.000206	0
bin	0.000208	0
bin	0.00021	0
bin	0.000212	0
bin	0.000214	0
bin	0.000216	0
bin	0.000218	0
bin	0.00022	0
statistic RoutingScenario.node[0].wlan[0].mac.dcf frameSequenceNumPackets:histogram
field count 67
field mean 1.9850746268657
field stddev 0.12216944435631
field min 1
field max 2
field sum 133
field sqrsum 265
attr recordingmode histogram
attr source frameSequenceNumPackets(frameSequenceFinished)
attr title "frame sequences: number of packets"
bin	-inf	0
bin	0	0
bin	1	1
bin	2	66
bin	3	0
scalar RoutingScenario.node[0].wlan[0].mac.dcf packetReceivedFromPeer:count 133
attr interpolationmode none
attr recordingmode count
attr title "packets received, count"
scalar RoutingScenario.node[0].wlan[0].mac.dcf packetReceivedFromPeer:sum(packetBytes) 69834
attr interpolationmode none
attr recordingmode sum(packetBytes)
attr title "packets received, sum(packetBytes)"
scalar RoutingScenario.node[0].wlan[0].mac.dcf packetReceivedFromPeerUnicast:count 132
attr interpolationmode none
attr recordingmode count
attr source ieee80211Unicast(packetReceivedFromPeer)
attr title "packets received: unicast, count"
scalar RoutingScenario.node[0].wlan[0].mac.dcf packetReceivedFromPeerUnicast:sum(packetBytes) 69752
attr interpolationmode none
attr recordingmode sum(packetBytes)
attr source ieee80211Unicast(packetReceivedFromPeer)
attr title "packets received: unicast, sum(packetBytes)"
scalar RoutingScenario.node[0].wlan[0].mac.dcf packetReceivedFromPeerMulticast:count 1
attr interpolationmode none
attr recordingmode count
attr source ieee80211Multicast(packetReceivedFromPeer)
attr title "packets received: multicast, count"
scalar RoutingScenario.node[0].wlan[0].mac.dcf packetReceivedFromPeerMulticast:sum(packetBytes) 82
attr interpolationmode none
attr recordingmode sum(packetBytes)
attr source ieee80211Multicast(packetReceivedFromPeer)
attr title "packets received: multicast, sum(packetBytes)"
scalar RoutingScenario.node[0].wlan[0].mac.dcf packetReceivedFromPeerBroadcast:count 1
attr interpolationmode none
attr recordingmode count
attr source ieee80211Broadcast(packetReceivedFromPeer)
attr title "packets received: broadcast, count"
scalar RoutingScenario.node[0].wlan[0].mac.dcf packetReceivedFromPeerBroadcast:sum(packetBytes) 82
attr interpolationmode none
attr recordingmode sum(packetBytes)
attr source ieee80211Broadcast(packetReceivedFromPeer)
attr title "packets received: broadcast, sum(packetBytes)"
scalar RoutingScenario.node[0].wlan[0].mac.dcf packetReceivedFromPeerWithRetry:count 0
attr interpolationmode none
attr recordingmode count
attr source ieee80211Retry(packetReceivedFromPeer)
attr title "packets received: with retry, count"
scalar RoutingScenario.node[0].wlan[0].mac.dcf packetReceivedFromPeerWithRetry:sum(packetBytes) 0
attr interpolationmode none
attr recordingmode sum(packetBytes)
attr source ieee80211Retry(packetReceivedFromPeer)
attr title "packets received: with retry, sum(packetBytes)"
scalar RoutingScenario.node[0].wlan[0].mac.dcf packetReceivedFromPeerWithoutRetry:count 133
attr interpolationmode none
attr recordingmode count
attr source ieee80211NotRetry(packetReceivedFromPeer)
attr title "packets received: without retry, count"
scalar RoutingScenario.node[0].wlan[0].mac.dcf packetReceivedFromPeerWithoutRetry:sum(packetBytes) 69834
attr interpolationmode none
attr recordingmode sum(packetBytes)
attr source ieee80211NotRetry(packetReceivedFromPeer)
attr title "packets received: without retry, sum(packetBytes)"
scalar RoutingScenario.node[0].wlan[0].mac.dcf packetSentToPeer:count 133
attr interpolationmode none
attr recordingmode count
attr title "packets sent, count"
scalar RoutingScenario.node[0].wlan[0].mac.dcf packetSentToPeer:sum(packetBytes) 6650
attr interpolationmode none
attr recordingmode sum(packetBytes)
attr title "packets sent, sum(packetBytes)"
scalar RoutingScenario.node[0].wlan[0].mac.dcf packetSentToPeerUnicast:count 132
attr interpolationmode none
attr recordingmode count
attr source ieee80211Unicast(packetSentToPeer)
attr title "packets sent: unicast, count"
scalar RoutingScenario.node[0].wlan[0].mac.dcf packetSentToPeerUnicast:sum(packetBytes) 6592
attr interpolationmode none
attr recordingmode sum(packetBytes)
attr source ieee80211Unicast(packetSentToPeer)
attr title "packets sent: unicast, sum(packetBytes)"
scalar RoutingScenario.node[0].wlan[0].mac.dcf packetSentToPeerMulticast:count 1
attr interpolationmode none
attr recordingmode count
attr source ieee80211Multicast(packetSentToPeer)
attr title "packets sent: multicast, count"
scalar RoutingScenario.node[0].wlan[0].mac.dcf packetSentToPeerMulticast:sum(packetBytes) 58
attr interpolationmode none
attr recordingmode sum(packetBytes)
attr source ieee80211Multicast(packetSentToPeer)
attr title "packets sent: multicast, sum(packetBytes)"
scalar RoutingScenario.node[0].wlan[0].mac.dcf packetSentToPeerBroadcast:count 1
attr interpolationmode none
attr recordingmode count
attr source ieee80211Broadcast(packetSentToPeer)
attr title "packets sent: broadcast , count"
scalar RoutingScenario.node[0].wlan[0].mac.dcf packetSentToPeerBroadcast:sum(packetBytes) 58
attr interpolationmode none
attr recordingmode sum(packetBytes)
attr source ieee80211Broadcast(packetSentToPeer)
attr title "packets sent: broadcast , sum(packetBytes)"
scalar RoutingScenario.node[0].wlan[0].mac.dcf packetSentToPeerWithRetry:count 0
attr interpolationmode none
attr recordingmode count
attr source ieee80211Retry(packetSentToPeer)
attr title "packets sent: with retry, count"
scalar RoutingScenario.node[0].wlan[0].mac.dcf packetSentToPeerWithRetry:sum(packetBytes) 0
attr interpolationmode none
attr recordingmode sum(packetBytes)
attr source ieee80211Retry(packetSentToPeer)
attr title "packets sent: with retry, sum(packetBytes)"
scalar RoutingScenario.node[0].wlan[0].mac.dcf packetSentToPeerWithoutRetry:count 133
attr interpolationmode none
attr recordingmode count
attr source ieee80211NotRetry(packetSentToPeer)
attr title "packets sent: without retry, count"
scalar RoutingScenario.node[0].wlan[0].mac.dcf packetSentToPeerWithoutRetry:sum(packetBytes) 6650
attr interpolationmode none
attr recordingmode sum(packetBytes)
attr source ieee80211NotRetry(packetSentToPeer)
attr title "packets sent: without retry, sum(packetBytes)"
scalar RoutingScenario.node[0].wlan[0].mac.dcf packetDrop:count 0
attr interpolationmode none
attr recordingmode count
attr source packetDropped
attr title "packet drops, count"
scalar RoutingScenario.node[0].wlan[0].mac.dcf packetDrop:sum(packetBytes) 0
attr interpolationmode none
attr recordingmode sum(packetBytes)
attr source packetDropped
attr title "packet drops, sum(packetBytes)"
scalar RoutingScenario.node[0].wlan[0].mac.dcf packetDropNotAddressedToUs:count 0
attr interpolationmode none
attr recordingmode count
attr source packetDropReasonIsNotAddressedToUs(packetDropped)
attr title "packet drops: not addressed to us, count"
scalar RoutingScenario.node[0].wlan[0].mac.dcf packetDropNotAddressedToUs:sum(packetBytes) 0
attr interpolationmode none
attr recordingmode sum(packetBytes)
attr source packetDropReasonIsNotAddressedToUs(packetDropped)
attr title "packet drops: not addressed to us, sum(packetBytes)"
scalar RoutingScenario.node[0].wlan[0].mac.dcf packetDropQueueOverflow:count 0
attr interpolationmode none
attr recordingmode count
attr source packetDropReasonIsQueueOverflow(packetDropped)
attr title "packet drops: queue overflow, count"
scalar RoutingScenario.node[0].wlan[0].mac.dcf packetDropQueueOverflow:sum(packetBytes) 0
attr interpolationmode none
attr recordingmode sum(packetBytes)
attr source packetDropReasonIsQueueOverflow(packetDropped)
attr title "packet drops: queue overflow, sum(packetBytes)"
scalar RoutingScenario.node[0].wlan[0].mac.dcf packetDropRetryLimitReached:count 0
attr interpolationmode none
attr recordingmode count
attr source packetDropReasonIsRetryLimitReached(packetDropped)
attr title "packet drops: retry limit reached, count"
scalar RoutingScenario.node[0].wlan[0].mac.dcf packetDropRetryLimitReached:sum(packetBytes) 0
attr interpolationmode none
attr recordingmode sum(packetBytes)
attr source packetDropReasonIsRetryLimitReached(packetDropped)
attr title "packet drops: retry limit reached, sum(packetBytes)"
scalar RoutingScenario.node[0].wlan[0].mac.dcf linkBroken:count 0
attr interpolationmode none
attr recordingmode count
attr title "link breaks, count"
par RoutingScenario.node[0].wlan[0].mac.ds typename "\"inet.linklayer.ieee80211.mac.Ds\""
par RoutingScenario.node[0].wlan[0].mac.ds mibModule "\"RoutingScenario.node[0].wlan[0].mib\""
par RoutingScenario.node[0].wlan[0].mac.rx typename "\"inet.linklayer.ieee80211.mac.Rx\""
par RoutingScenario.node[0].wlan[0].mac.tx typename "\"inet.linklayer.ieee80211.mac.Tx\""
par RoutingScenario.node[0].wlan[0].mac.tx rxModule "\"^.rx\""
par RoutingScenario.node[0].wlan[0].mac typename "\"inet.linklayer.ieee80211.mac.Ieee80211Mac\""
par RoutingScenario.node[0].wlan[0].mac interfaceTableModule "\"RoutingScenario.node[0].interfaceTable\""
par RoutingScenario.node[0].wlan[0].mac mibModule "\"RoutingScenario.node[0].wlan[0].mib\""
par RoutingScenario.node[0].wlan[0].mac modeSet "\"p\""
attr enum a,b,g(erp),g(mixed),n(mixed-2.4Ghz),p,ac
par RoutingScenario.node[0].wlan[0].mac fcsMode "\"declared\""
attr enum declared,computed
par RoutingScenario.node[0].wlan[0].mac initialRadioMode "\"receiver\""
attr enum off,sleep,receiver,transmitter,transceiver
par RoutingScenario.node[0].wlan[0].mac mtu 2304B
attr unit B
par RoutingScenario.node[0].wlan[0].mac qosStation false
scalar RoutingScenario.node[0].wlan[0].mac packetReceivedFromLower:count 133
attr interpolationmode none
attr recordingmode count
attr title "packets received from lower layer, count"
scalar RoutingScenario.node[0].wlan[0].mac packetReceivedFromLower:sum(packetBytes) 69834
attr interpolationmode none
attr recordingmode sum(packetBytes)
attr title "packets received from lower layer, sum(packetBytes)"
scalar RoutingScenario.node[0].wlan[0].mac packetSentToLower:count 133
attr interpolationmode none
attr recordingmode count
attr title "packets sent to lower layer, count"
scalar RoutingScenario.node[0].wlan[0].mac packetSentToLower:sum(packetBytes) 6650
attr interpolationmode none
attr recordingmode sum(packetBytes)
attr title "packets sent to lower layer, sum(packetBytes)"
scalar RoutingScenario.node[0].wlan[0].mac packetReceivedFromUpper:count 67
attr interpolationmode none
attr recordingmode count
attr title "packets received from upper layer, count"
scalar RoutingScenario.node[0].wlan[0].mac packetReceivedFromUpper:sum(packetBytes) 3850
attr interpolationmode none
attr recordingmode sum(packetBytes)
attr title "packets received from upper layer, sum(packetBytes)"
scalar RoutingScenario.node[0].wlan[0].mac packetSentToUpper:count 67
attr interpolationmode none
attr recordingmode count
attr title "packets sent to upper layer, count"
scalar RoutingScenario.node[0].wlan[0].mac packetSentToUpper:sum(packetBytes) 67034
attr interpolationmode none
attr recordingmode sum(packetBytes)
attr title "packets sent to upper layer, sum(packetBytes)"
scalar RoutingScenario.node[0].wlan[0].mac packetDrop:count 0
attr interpolationmode none
attr recordingmode count
attr source packetDropped
attr title "packet drops, count"
scalar RoutingScenario.node[0].wlan[0].mac packetDrop:sum(packetBytes) 0
attr interpolationmode none
attr recordingmode sum(packetBytes)
attr source packetDropped
attr title "packet drops, sum(packetBytes)"
scalar RoutingScenario.node[0].wlan[0].mac packetDropIncorrectlyReceived:count 0
attr interpolationmode none
attr recordingmode count
attr source packetDropReasonIsIncorrectlyReceived(packetDropped)
attr title "packet drops: incorrectly received, count"
scalar RoutingScenario.node[0].wlan[0].mac packetDropIncorrectlyReceived:sum(packetBytes) 0
attr interpolationmode none
attr recordingmode sum(packetBytes)
attr source packetDropReasonIsIncorrectlyReceived(packetDropped)
attr title "packet drops: incorrectly received, sum(packetBytes)"
scalar RoutingScenario.node[0].wlan[0].mac packetDropNotAddressedToUs:count 0
attr interpolationmode none
attr recordingmode count
attr source packetDropReasonIsNotAddressedToUs(packetDropped)
attr title "packet drops: not addressed to us, count"
scalar RoutingScenario.node[0].wlan[0].mac packetDropNotAddressedToUs:sum(packetBytes) 0
attr interpolationmode none
attr recordingmode sum(packetBytes)
attr source packetDropReasonIsNotAddressedToUs(packetDropped)
attr title "packet drops: not addressed to us, sum(packetBytes)"
scalar RoutingScenario.node[0].wlan[0].mac packetDropQueueOverflow:count 0
attr interpolationmode none
attr recordingmode count
attr source packetDropReasonIsQueueOverflow(packetDropped)
attr title "packet drops: queue overflow, count"
scalar RoutingScenario.node[0].wlan[0].mac packetDropQueueOverflow:sum(packetBytes) 0
attr interpolationmode none
attr recordingmode sum(packetBytes)
attr source packetDropReasonIsQueueOverflow(packetDropped)
attr title "packet drops: queue overflow, sum(packetBytes)"
scalar RoutingScenario.node[0].wlan[0].mac packetDropRetryLimitReached:count 0
attr interpolationmode none
attr recordingmode count
attr source packetDropReasonIsRetryLimitReached(packetDropped)
attr title "packet drops: retry limit reached, count"
scalar RoutingScenario.node[0].wlan[0].mac packetDropRetryLimitReached:sum(packetBytes) 0
attr interpolationmode none
attr recordingmode sum(packetBytes)
attr source packetDropReasonIsRetryLimitReached(packetDropped)
attr title "packet drops: retry limit reached, sum(packetBytes)"
scalar RoutingScenario.node[0].wlan[0].mac packetDropDuplicateDetected:count 0
attr interpolationmode none
attr recordingmode count
attr source packetDropReasonIsDuplicateDetected(packetDropped)
attr title "packet drops: duplicate detected, count"
scalar RoutingScenario.node[0].wlan[0].mac packetDropDuplicateDetected:sum(packetBytes) 0
attr interpolationmode none
attr recordingmode sum(packetBytes)
attr source packetDropReasonIsDuplicateDetected(packetDropped)
attr title "packet drops: duplicate detected, sum(packetBytes)"
scalar RoutingScenario.node[0].wlan[0].mac packetDropOther:count 0
attr interpolationmode none
attr recordingmode count
attr source packetDropReasonIsOther(packetDropped)
attr title "packet drops: other, count"
scalar RoutingScenario.node[0].wlan[0].mac packetDropOther:sum(packetBytes) 0
attr interpolationmode none
attr recordingmode sum(packetBytes)
attr source packetDropReasonIsOther(packetDropped)
attr title "packet drops: other, sum(packetBytes)"
scalar RoutingScenario.node[0].wlan[0].mac linkBroken:count 0
attr interpolationmode none
attr recordingmode count
attr title "link breaks, count"
par RoutingScenario.node[0].wlan[0].radio.antenna typename "\"inet.physicallayer.wireless.common.antenna.IsotropicAntenna\""
par RoutingScenario.node[0].wlan[0].radio.antenna mobilityModule "\"^.^.^.mobility\""
par RoutingScenario.node[0].wlan[0].radio.antenna numAntennas 1
par RoutingScenario.node[0].wlan[0].radio.transmitter typename "\"inet.physicallayer.wireless.ieee80211.packetlevel.Ieee80211ScalarTransmitter\""
par RoutingScenario.node[0].wlan[0].radio.transmitter preambleDuration -1s
attr unit s
par RoutingScenario.node[0].wlan[0].radio.transmitter headerLength 192b
attr unit b
par RoutingScenario.node[0].wlan[0].radio.transmitter bitrate -1bps
attr unit bps
par RoutingScenario.node[0].wlan[0].radio.transmitter power 0.02W
attr unit W
par RoutingScenario.node[0].wlan[0].radio.transmitter centerFrequency 2.412e+09Hz
attr unit Hz
par RoutingScenario.node[0].wlan[0].radio.transmitter bandwidth 1e+07Hz
attr unit Hz
par RoutingScenario.node[0].wlan[0].radio.transmitter modulation "\"BPSK\""
par RoutingScenario.node[0].wlan[0].radio.transmitter opMode "\"p\""
attr enum a,b,g(erp),g(mixed),n(mixed-2.4Ghz),p,ac
par RoutingScenario.node[0].wlan[0].radio.transmitter bandName "\"5.9 GHz\""
attr enum "2.4 GHz,5 GHz,5 GHz (20 MHz),5 GHz (40 MHz),5 GHz (80 MHz),5 GHz (160 MHz),5.9 GHz"
par RoutingScenario.node[0].wlan[0].radio.transmitter channelNumber 3
par RoutingScenario.node[0].wlan[0].radio.receiver.errorModel typename "\"inet.physicallayer.wireless.ieee80211.packetlevel.errormodel.Ieee80211NistErrorModel\""
par RoutingScenario.node[0].wlan[0].radio.receiver.errorModel corruptionMode "\"packet\""
attr enum packet,chunk,byte,bit
par RoutingScenario.node[0].wlan[0].radio.receiver.errorModel snirMode "\"min\""
attr unit min,mean
par RoutingScenario.node[0].wlan[0].radio.receiver.errorModel snirOffset 0dB
attr unit dB
par RoutingScenario.node[0].wlan[0].radio.receiver typename "\"inet.physicallayer.wireless.ieee80211.packetlevel.Ieee80211ScalarReceiver\""
par RoutingScenario.node[0].wlan[0].radio.receiver snirThreshold 4dB
attr unit dB
par RoutingScenario.node[0].wlan[0].radio.receiver snirThresholdMode "\"min\""
attr unit min,mean
par RoutingScenario.node[0].wlan[0].radio.receiver energyDetection -85dBm
attr unit dBm
par RoutingScenario.node[0].wlan[0].radio.receiver sensitivity -85dBm
attr unit dBm
par RoutingScenario.node[0].wlan[0].radio.receiver centerFrequency 2.412e+09Hz
attr unit Hz
par RoutingScenario.node[0].wlan[0].radio.receiver bandwidth 2.2e+07Hz
attr unit Hz
par RoutingScenario.node[0].wlan[0].radio.receiver modulation "\"BPSK\""
par RoutingScenario.node[0].wlan[0].radio.receiver opMode "\"p\""
attr enum a,b,g(erp),g(mixed),n(mixed-2.4Ghz),p,ac
par RoutingScenario.node[0].wlan[0].radio.receiver bandName "\"5.9 GHz\""
attr enum "2.4 GHz,5 GHz,5 GHz (20 MHz),5 GHz (40 MHz),5 GHz (80 MHz),5 GHz (160 MHz),5.9 GHz"
par RoutingScenario.node[0].wlan[0].radio.receiver channelNumber 3
par RoutingScenario.node[0].wlan[0].radio typename "\"inet.physicallayer.wireless.ieee80211.packetlevel.Ieee80211ScalarRadio\""
par RoutingScenario.node[0].wlan[0].radio radioMediumModule "\"radioMedium\""
par RoutingScenario.node[0].wlan[0].radio energySourceModule "\"\""
par RoutingScenario.node[0].wlan[0].radio initialRadioMode "\"off\""
attr enum off,sleep,receiver,transmitter,transceiver
par RoutingScenario.node[0].wlan[0].radio switchingTimes "\"ms 0 0 0 0 0 0 0 0 0 0 0 0 0 0 0 0 0 0 0 0 0 0 0 0 0\""
par RoutingScenario.node[0].wlan[0].radio sendRawBytes false
par RoutingScenario.node[0].wlan[0].radio separateTransmissionParts false
par RoutingScenario.node[0].wlan[0].radio separateReceptionParts false
par RoutingScenario.node[0].wlan[0].radio displayCommunicationRange false
par RoutingScenario.node[0].wlan[0].radio displayInterferenceRange false
par RoutingScenario.node[0].wlan[0].radio centerFrequency 2.412e+09Hz
attr unit Hz
par RoutingScenario.node[0].wlan[0].radio bandwidth 1e+07Hz
attr unit Hz
par RoutingScenario.node[0].wlan[0].radio signalAnalogRepresentation "\"scalar\""
attr enum scalar,dimensional
par RoutingScenario.node[0].wlan[0].radio opMode "\"p\""
attr enum a,b,g(erp),g(mixed),n(mixed-2.4Ghz),p,ac
par RoutingScenario.node[0].wlan[0].radio bandName "\"5.9 GHz\""
attr enum "2.4 GHz,5 GHz,5 GHz (20 MHz),5 GHz (40 MHz),5 GHz (80 MHz),5 GHz (160 MHz),5.9 GHz"
par RoutingScenario.node[0].wlan[0].radio channelNumber 3
par RoutingScenario.node[0].wlan[0].radio crcMode "\"declared\""
attr enum declared,computed
statistic RoutingScenario.node[0].wlan[0].radio radioChannel:histogram
field count 1
field mean 3
field stddev nan
field min 3
field max 3
field sum 3
field sqrsum 9
attr interpolationmode sample-hold
attr recordingmode histogram
attr source radioChannelChanged
attr title "Radio channel"
bin	-inf	0
bin	2	0
bin	3	1
bin	4	0
scalar RoutingScenario.node[0].wlan[0].radio radioMode:count 269
attr interpolationmode sample-hold
attr recordingmode count
attr source radioModeChanged
attr title "Radio mode, count"
scalar RoutingScenario.node[0].wlan[0].radio receptionState:count 533
attr interpolationmode sample-hold
attr recordingmode count
attr source receptionStateChanged
attr title "Radio reception state, count"
scalar RoutingScenario.node[0].wlan[0].radio transmissionState:count 532
attr interpolationmode sample-hold
attr recordingmode count
attr source transmissionStateChanged
attr title "Radio transmission state, count"
statistic RoutingScenario.node[0].wlan[0].radio minSnir:histogram
field count 133
field mean 35608.929435997
field stddev 6216.5157033345
field min 26786.648393139
field max 47196.569887867
field sum 4735987.6149875
field sqrsum 173744597700.5
attr recordingmode histogram
attr source minimumSnir(packetSentToUpper)
attr title "Min SNIR"
bin	-inf	0
bin	21500	0
bin	22000	0
bin	22500	0
bin	23000	0
bin	23500	0
bin	24000	0
bin	24500	0
bin	25000	0
bin	25500	0
bin	26000	0
bin	26500	2
bin	27000	0
bin	27500	0
bin	28000	12
bin	28500	0
bin	29000	0
bin	29500	0
bin	30000	30
bin	30500	0
bin	31000	0
bin	31500	8
bin	32000	0
bin	32500	0
bin	33000	0
bin	33500	21
bin	34000	0
bin	34500	0
bin	35000	0
bin	35500	0
bin	36000	23
bin	36500	0
bin	37000	0
bin	37500	0
bin	38000	0
bin	38500	4
bin	39000	0
bin	39500	0
bin	40000	0
bin	40500	0
bin	41000	8
bin	41500	0
bin	42000	0
bin	42500	0
bin	43000	0
bin	43500	0
bin	44000	8
bin	44500	0
bin	45000	0
bin	45500	0
bin	46000	0
bin	46500	0
bin	47000	17
bin	47500	0
bin	48000	0
bin	48500	0
bin	49000	0
bin	49500	0
bin	50000	0
bin	50500	0
bin	51000	0
bin	51500	0
bin	52000	0
bin	52500	0
statistic RoutingScenario.node[0].wlan[0].radio packetErrorRate:histogram
field count 133
field mean 0
field stddev 0
field min 0
field max 0
field sum 0
field sqrsum 0
attr recordingmode histogram
attr source packetErrorRate(packetSentToUpper)
attr title "Packet error rate"
bin	-inf	0
bin	-0.5	0
bin	-0.48	0
bin	-0.46	0
bin	-0.44	0
bin	-0.42	0
bin	-0.4	0
bin	-0.38	0
bin	-0.36	0
bin	-0.34	0
bin	-0.32	0
bin	-0.3	0
bin	-0.28	0
bin	-0.26	0
bin	-0.24	0
bin	-0.22	0
bin	-0.2	0
bin	-0.18	0
bin	-0.16	0
bin	-0.14	0
bin	-0.12	0
bin	-0.1	0
bin	-0.08	0
bin	-0.06	0
bin	-0.04	0
bin	-0.02	0
bin	0	133
bin	0.02	0
bin	0.04	0
bin	0.06	0
bin	0.08	0
bin	0.1	0
bin	0.12	0
bin	0.14	0
bin	0.16	0
bin	0.18	0
bin	0.2	0
bin	0.22	0
bin	0.24	0
bin	0.26	0
bin	0.28	0
bin	0.3	0
bin	0.32	0
bin	0.34	0
bin	0.36	0
bin	0.38	0
bin	0.4	0
bin	0.42	0
bin	0.44	0
bin	0.46	0
bin	0.48	0
bin	0.5	0
statistic RoutingScenario.node[0].wlan[0].radio bitErrorRate:histogram
field count 0
field mean -nan
field stddev nan
field min nan
field max nan
field sum 0
field sqrsum 0
attr recordingmode histogram
attr source bitErrorRate(packetSentToUpper)
attr title "Bit error rate"
bin	-inf	0
bin	0	0
bin	1	0
statistic RoutingScenario.node[0].wlan[0].radio symbolErrorRate:histogram
field count 0
field mean -nan
field stddev nan
field min nan
field max nan
field sum 0
field sqrsum 0
attr recordingmode histogram
attr source symbolErrorRate(packetSentToUpper)
attr title "Symbol error rate"
bin	-inf	0
bin	0	0
bin	1	0
par RoutingScenario.node[0].wlan[0] typename "\"inet.linklayer.ieee80211.Ieee80211Interface\""
par RoutingScenario.node[0].wlan[0] displayStringTextFormat "\"%a (%i)\\n%m\""
par RoutingScenario.node[0].wlan[0] recordPcap false
par RoutingScenario.node[0].wlan[0] numPcapRecorders 0
par RoutingScenario.node[0].wlan[0] interfaceTableModule "\"RoutingScenario.node[0].interfaceTable\""
par RoutingScenario.node[0].wlan[0] energySourceModule "\"\""
par RoutingScenario.node[0].wlan[0] opMode "\"p\""
attr enum a,b,g(erp),g(mixed),n(mixed-2.4Ghz),p,ac
par RoutingScenario.node[0].wlan[0] address "\"0A-AA-00-00-00-01\""
attr mutable ""
par RoutingScenario.node[0].wlan[0] protocol "\"\""
par RoutingScenario.node[0].wlan[0] bitrate -1bps
attr unit bps
scalar RoutingScenario.node[0].wlan[0] packetDropInterfaceDown:count 0
attr interpolationmode none
attr recordingmode count
attr source packetDropReasonIsInterfaceDown(packetDropped)
attr title "packet drops: interface down, count"
scalar RoutingScenario.node[0].wlan[0] packetDropInterfaceDown:sum(packetBytes) 0
attr interpolationmode none
attr recordingmode sum(packetBytes)
attr source packetDropReasonIsInterfaceDown(packetDropped)
attr title "packet drops: interface down, sum(packetBytes)"
scalar RoutingScenario.node[0].wlan[0] packetDropNoCarrier:count 0
attr interpolationmode none
attr recordingmode count
attr source packetDropReasonIsNoCarrier(packetDropped)
attr title "packet drops: no carrier, count"
scalar RoutingScenario.node[0].wlan[0] packetDropNoCarrier:sum(packetBytes) 0
attr interpolationmode none
attr recordingmode sum(packetBytes)
attr source packetDropReasonIsNoCarrier(packetDropped)
attr title "packet drops: no carrier, sum(packetBytes)"
par RoutingScenario.node[0].ipv4.transportIn.channel typename "\"ned.IdealChannel\""
par RoutingScenario.node[0].ipv4.up.out[0].channel typename "\"ned.IdealChannel\""
par RoutingScenario.node[0].ipv4.lp.out[2].channel typename "\"ned.IdealChannel\""
par RoutingScenario.node[0].ipv4.ifIn.channel typename "\"ned.IdealChannel\""
par RoutingScenario.node[0].ipv4.configurator typename "\"inet.networklayer.configurator.ipv4.HostAutoConfigurator\""
par RoutingScenario.node[0].ipv4.configurator interfaceTableModule "\"RoutingScenario.node[0].interfaceTable\""
par RoutingScenario.node[0].ipv4.configurator interfaces "\"wlan0\""
par RoutingScenario.node[0].ipv4.configurator addressBase "\"10.0.0.0\""
par RoutingScenario.node[0].ipv4.configurator netmask "\"255.0.0.0\""
par RoutingScenario.node[0].ipv4.configurator mcastGroups "\"224.0.0.1\""
par RoutingScenario.node[0].ipv4.routingTable typename "\"inet.networklayer.ipv4.Ipv4RoutingTable\""
par RoutingScenario.node[0].ipv4.routingTable interfaceTableModule "\"RoutingScenario.node[0].interfaceTable\""
par RoutingScenario.node[0].ipv4.routingTable routerId "\"auto\""
par RoutingScenario.node[0].ipv4.routingTable netmaskRoutes "\"*\""
par RoutingScenario.node[0].ipv4.routingTable forwarding true
par RoutingScenario.node[0].ipv4.routingTable multicastForwarding false
par RoutingScenario.node[0].ipv4.routingTable useAdminDist false
par RoutingScenario.node[0].ipv4.routingTable routingFile "\"\""
par RoutingScenario.node[0].ipv4.natTable typename "\"inet.networklayer.ipv4.Ipv4NatTable\""
par RoutingScenario.node[0].ipv4.natTable networkProtocolModule "\"^.ip\""
par RoutingScenario.node[0].ipv4.natTable config "<config/> at content:1"
par RoutingScenario.node[0].ipv4.up typename "\"inet.common.MessageDispatcher\""
par RoutingScenario.node[0].ipv4.up displayStringTextFormat "\"processed %p pk (%l)\""
par RoutingScenario.node[0].ipv4.up forwardServiceRegistration true
par RoutingScenario.node[0].ipv4.up forwardProtocolRegistration true
par RoutingScenario.node[0].ipv4.igmp typename "\"inet.networklayer.ipv4.Igmpv2\""
par RoutingScenario.node[0].ipv4.igmp interfaceTableModule "\"RoutingScenario.node[0].interfaceTable\""
par RoutingScenario.node[0].ipv4.igmp routingTableModule "\"RoutingScenario.node[0].ipv4.routingTable\""
par RoutingScenario.node[0].ipv4.igmp crcMode "\"declared\""
attr enum declared,computed
par RoutingScenario.node[0].ipv4.igmp enabled true
par RoutingScenario.node[0].ipv4.igmp robustnessVariable 2
par RoutingScenario.node[0].ipv4.igmp queryInterval 125s
attr unit s
par RoutingScenario.node[0].ipv4.igmp queryResponseInterval 10s
attr unit s
par RoutingScenario.node[0].ipv4.igmp groupMembershipInterval 260s
attr unit s
par RoutingScenario.node[0].ipv4.igmp otherQuerierPresentInterval 255s
attr unit s
par RoutingScenario.node[0].ipv4.igmp startupQueryInterval 31.25s
attr unit s
par RoutingScenario.node[0].ipv4.igmp startupQueryCount 2
par RoutingScenario.node[0].ipv4.igmp lastMemberQueryInterval 1s
attr unit s
par RoutingScenario.node[0].ipv4.igmp lastMemberQueryCount 2
par RoutingScenario.node[0].ipv4.igmp unsolicitedReportInterval 10s
attr unit s
par RoutingScenario.node[0].ipv4.icmp typename "\"inet.networklayer.ipv4.Icmp\""
par RoutingScenario.node[0].ipv4.icmp interfaceTableModule "\"RoutingScenario.node[0].interfaceTable\""
par RoutingScenario.node[0].ipv4.icmp routingTableModule "\"RoutingScenario.node[0].ipv4.routingTable\""
par RoutingScenario.node[0].ipv4.icmp crcMode "\"declared\""
attr enum declared,computed
attr mutable ""
par RoutingScenario.node[0].ipv4.icmp quoteLength 8B
attr mutable ""
attr unit B
par RoutingScenario.node[0].ipv4.mp typename "\"inet.common.MessageDispatcher\""
par RoutingScenario.node[0].ipv4.mp displayStringTextFormat "\"processed %p pk (%l)\""
par RoutingScenario.node[0].ipv4.mp forwardServiceRegistration true
par RoutingScenario.node[0].ipv4.mp forwardProtocolRegistration true
par RoutingScenario.node[0].ipv4.ip typename "\"inet.networklayer.ipv4.Ipv4\""
par RoutingScenario.node[0].ipv4.ip interfaceTableModule "\"RoutingScenario.node[0].interfaceTable\""
par RoutingScenario.node[0].ipv4.ip routingTableModule "\"RoutingScenario.node[0].ipv4.routingTable\""
par RoutingScenario.node[0].ipv4.ip arpModule "\"RoutingScenario.node[0].ipv4.arp\""
par RoutingScenario.node[0].ipv4.ip icmpModule "\"RoutingScenario.node[0].ipv4.icmp\""
par RoutingScenario.node[0].ipv4.ip crcMode "\"declared\""
attr enum declared,computed
par RoutingScenario.node[0].ipv4.ip timeToLive 32
par RoutingScenario.node[0].ipv4.ip multicastTimeToLive 32
par RoutingScenario.node[0].ipv4.ip fragmentTimeout 60s
attr unit s
par RoutingScenario.node[0].ipv4.ip limitedBroadcast false
par RoutingScenario.node[0].ipv4.ip directBroadcastInterfaces "\"\""
scalar RoutingScenario.node[0].ipv4.ip packetDropAddressResolutionFailed:count 0
attr interpolationmode none
attr recordingmode count
attr source packetDropReasonIsAddressResolutionFailed(packetDropped)
attr title "packet drop: address resolution failed, count"
scalar RoutingScenario.node[0].ipv4.ip packetDropAddressResolutionFailed:sum(packetBytes) 0
attr interpolationmode none
attr recordingmode sum(packetBytes)
attr source packetDropReasonIsAddressResolutionFailed(packetDropped)
attr title "packet drop: address resolution failed, sum(packetBytes)"
scalar RoutingScenario.node[0].ipv4.ip packetDropHopLimitReached:count 0
attr interpolationmode none
attr recordingmode count
attr source packetDropReasonIsHopLimitReached(packetDropped)
attr title "packet drop: hop limit reached, count"
scalar RoutingScenario.node[0].ipv4.ip packetDropHopLimitReached:sum(packetBytes) 0
attr interpolationmode none
attr recordingmode sum(packetBytes)
attr source packetDropReasonIsHopLimitReached(packetDropped)
attr title "packet drop: hop limit reached, sum(packetBytes)"
scalar RoutingScenario.node[0].ipv4.ip packetDropForwardingDisabled:count 0
attr interpolationmode none
attr recordingmode count
attr source packetDropReasonIsForwardingDisabled(packetDropped)
attr title "packet drop: forwarding disabled, count"
scalar RoutingScenario.node[0].ipv4.ip packetDropForwardingDisabled:sum(packetBytes) 0
attr interpolationmode none
attr recordingmode sum(packetBytes)
attr source packetDropReasonIsForwardingDisabled(packetDropped)
attr title "packet drop: forwarding disabled, sum(packetBytes)"
scalar RoutingScenario.node[0].ipv4.ip packetDropNoInterfaceFound:count 0
attr interpolationmode none
attr recordingmode count
attr source packetDropReasonIsNoInterfaceFound(packetDropped)
attr title "packet drop: no interface found, count"
scalar RoutingScenario.node[0].ipv4.ip packetDropNoInterfaceFound:sum(packetBytes) 0
attr interpolationmode none
attr recordingmode sum(packetBytes)
attr source packetDropReasonIsNoInterfaceFound(packetDropped)
attr title "packet drop: no interface found, sum(packetBytes)"
scalar RoutingScenario.node[0].ipv4.ip packetDropNoRouteFound:count 0
attr interpolationmode none
attr recordingmode count
attr source packetDropReasonIsNoRouteFound(packetDropped)
attr title "packet drop: no route found, count"
scalar RoutingScenario.node[0].ipv4.ip packetDropNoRouteFound:sum(packetBytes) 0
attr interpolationmode none
attr recordingmode sum(packetBytes)
attr source packetDropReasonIsNoRouteFound(packetDropped)
attr title "packet drop: no route found, sum(packetBytes)"
scalar RoutingScenario.node[0].ipv4.ip packetDropUndefined:count 0
attr interpolationmode none
attr recordingmode count
attr source packetDropReasonIsUndefined(packetDropped)
attr title "packet drop: undefined, count"
scalar RoutingScenario.node[0].ipv4.ip packetDropUndefined:sum(packetBytes) 0
attr interpolationmode none
attr recordingmode sum(packetBytes)
attr source packetDropReasonIsUndefined(packetDropped)
attr title "packet drop: undefined, sum(packetBytes)"
par RoutingScenario.node[0].ipv4.arp typename "\"inet.networklayer.arp.ipv4.Arp\""
par RoutingScenario.node[0].ipv4.arp interfaceTableModule "\"RoutingScenario.node[0].interfaceTable\""
par RoutingScenario.node[0].ipv4.arp routingTableModule "\"RoutingScenario.node[0].ipv4.routingTable\""
par RoutingScenario.node[0].ipv4.arp retryTimeout 1s
attr unit s
par RoutingScenario.node[0].ipv4.arp retryCount 3
par RoutingScenario.node[0].ipv4.arp cacheTimeout 120s
attr unit s
par RoutingScenario.node[0].ipv4.arp proxyArpInterfaces "\"\""
scalar RoutingScenario.node[0].ipv4.arp arpResolutionFailed:count 0
attr recordingmode count
attr title "ARP failed resolutions, count"
scalar RoutingScenario.node[0].ipv4.arp arpResolutionCompleted:count 1
attr recordingmode count
attr title "ARP completed resolutions, count"
scalar RoutingScenario.node[0].ipv4.arp arpResolutionInitiated:count 1
attr recordingmode count
attr title "ARP initiated resolutions, count"
scalar RoutingScenario.node[0].ipv4.arp arpReplySent:count 0
attr recordingmode count
attr source arpReplySent
attr title "ARP replies sent, count"
scalar RoutingScenario.node[0].ipv4.arp arpReplySent:sum(packetBytes) 0
attr recordingmode sum(packetBytes)
attr source arpReplySent
attr title "ARP replies sent, sum(packetBytes)"
scalar RoutingScenario.node[0].ipv4.arp arpRequestSent:count 1
attr recordingmode count
attr source arpRequestSent
attr title "ARP request sent, count"
scalar RoutingScenario.node[0].ipv4.arp arpRequestSent:sum(packetBytes) 28
attr recordingmode sum(packetBytes)
attr source arpRequestSent
attr title "ARP request sent, sum(packetBytes)"
par RoutingScenario.node[0].ipv4.lp typename "\"inet.common.MessageDispatcher\""
par RoutingScenario.node[0].ipv4.lp displayStringTextFormat "\"processed %p pk (%l)\""
par RoutingScenario.node[0].ipv4.lp forwardServiceRegistration true
par RoutingScenario.node[0].ipv4.lp forwardProtocolRegistration true
par RoutingScenario.node[0].ipv4 typename "\"inet.networklayer.ipv4.Ipv4NetworkLayer\""
par RoutingScenario.node[0].ipv4 forwarding true
par RoutingScenario.node[0].ipv4 multicastForwarding false
par RoutingScenario.node[0].ipv4 interfaceTableModule "\"RoutingScenario.node[0].interfaceTable\""
par RoutingScenario.node[0].ipv4 displayStringTextFormat "\"%i\""
par RoutingScenario.node[0].nl typename "\"inet.common.MessageDispatcher\""
par RoutingScenario.node[0].nl displayStringTextFormat "\"processed %p pk (%l)\""
par RoutingScenario.node[0].nl forwardServiceRegistration true
par RoutingScenario.node[0].nl forwardProtocolRegistration true
par RoutingScenario.node[0].udp typename "\"inet.transportlayer.udp.Udp\""
par RoutingScenario.node[0].udp interfaceTableModule "\"RoutingScenario.node[0].interfaceTable\""
par RoutingScenario.node[0].udp icmpModule "\"^.ipv4.icmp\""
par RoutingScenario.node[0].udp icmpv6Module "\"^.ipv6.icmpv6\""
par RoutingScenario.node[0].udp crcMode "\"declared\""
attr enum disabled,declared,computed
par RoutingScenario.node[0].udp defaultMulticastLoop true
scalar RoutingScenario.node[0].udp packetReceived:count 559
attr interpolationmode none
attr recordingmode count
attr source packetReceived
attr title "packets received, count"
scalar RoutingScenario.node[0].udp packetReceived:sum(packetBytes) 562496
attr interpolationmode none
attr recordingmode sum(packetBytes)
attr source packetReceived
attr title "packets received, sum(packetBytes)"
scalar RoutingScenario.node[0].udp packetSent:count 495
attr interpolationmode none
attr recordingmode count
attr source packetSent
attr title "packets sent, count"
scalar RoutingScenario.node[0].udp packetSent:sum(packetBytes) 497980
attr interpolationmode none
attr recordingmode sum(packetBytes)
attr source packetSent
attr title "packets sent, sum(packetBytes)"
scalar RoutingScenario.node[0].udp passedUpPk:count 1
attr interpolationmode none
attr recordingmode count
attr source packetSentToUpper
attr title "packets passed up, count"
scalar RoutingScenario.node[0].udp droppedPkWrongPort:count 558
attr interpolationmode none
attr recordingmode count
attr source packetDropReasonIsNoPortFound(packetDropped)
attr title "packets dropped (wrong port), count"
scalar RoutingScenario.node[0].udp droppedPkBadChecksum:count 0
attr interpolationmode none
attr recordingmode count
attr source packetDropReasonIsIncorrectlyReceived(packetDropped)
attr title "packets dropped (checksum error), count"
par RoutingScenario.node[0].tcp typename "\"inet.transportlayer.tcp.Tcp\""
par RoutingScenario.node[0].tcp crcMode "\"declared\""
attr enum declared,computed
par RoutingScenario.node[0].tcp advertisedWindow 7504
par RoutingScenario.node[0].tcp delayedAcksEnabled false
par RoutingScenario.node[0].tcp nagleEnabled true
par RoutingScenario.node[0].tcp limitedTransmitEnabled false
par RoutingScenario.node[0].tcp increasedIWEnabled false
par RoutingScenario.node[0].tcp sackSupport false
par RoutingScenario.node[0].tcp windowScalingSupport false
par RoutingScenario.node[0].tcp windowScalingFactor -1
par RoutingScenario.node[0].tcp timestampSupport false
par RoutingScenario.node[0].tcp mss 536
par RoutingScenario.node[0].tcp msl 120s
attr unit s
par RoutingScenario.node[0].tcp tcpAlgorithmClass "\"TcpReno\""
attr enum TcpVegas,TcpWestwood,TcpNewReno,TcpReno,TcpTahoe,TcpNoCongestionControl
par RoutingScenario.node[0].tcp useDataNotification false
par RoutingScenario.node[0].tcp dupthresh 3
par RoutingScenario.node[0].tcp initialSsthresh 4294967295
par RoutingScenario.node[0].tcp stopOperationExtraTime 0s
attr unit s
par RoutingScenario.node[0].tcp stopOperationTimeout 2s
attr unit s
par RoutingScenario.node[0].tcp ecnWillingness false
par RoutingScenario.node[0].tcp dctcpGamma 0.0625
par RoutingScenario.node[0].tn typename "\"inet.common.MessageDispatcher\""
par RoutingScenario.node[0].tn displayStringTextFormat "\"processed %p pk (%l)\""
par RoutingScenario.node[0].tn forwardServiceRegistration true
par RoutingScenario.node[0].tn forwardProtocolRegistration true
par RoutingScenario.node[0].app[0] typename "\"inet.applications.udpapp.UdpBasicApp\""
par RoutingScenario.node[0].app[0] interfaceTableModule "\"RoutingScenario.node[0].interfaceTable\""
par RoutingScenario.node[0].app[0] clockModule "\"\""
par RoutingScenario.node[0].app[0] localPort -1
par RoutingScenario.node[0].app[0] destAddresses "\"node[*]\""
par RoutingScenario.node[0].app[0] localAddress "\"\""
par RoutingScenario.node[0].app[0] packetName "\"UDPData\""
par RoutingScenario.node[0].app[0] destPort 5000
par RoutingScenario.node[0].app[0] messageLength 1000B
attr unit B
par RoutingScenario.node[0].app[0] startTime 0.00955049s
attr unit s
par RoutingScenario.node[0].app[0] stopTime -1s
attr unit s
par RoutingScenario.node[0].app[0] sendInterval exponential(12ms)
attr unit s
par RoutingScenario.node[0].app[0] timeToLive -1
par RoutingScenario.node[0].app[0] dontFragment false
par RoutingScenario.node[0].app[0] dscp -1
par RoutingScenario.node[0].app[0] tos -1
par RoutingScenario.node[0].app[0] multicastInterface "\"\""
par RoutingScenario.node[0].app[0] receiveBroadcast false
par RoutingScenario.node[0].app[0] joinLocalMulticastGroups false
par RoutingScenario.node[0].app[0] stopOperationExtraTime -1s
attr unit s
par RoutingScenario.node[0].app[0] stopOperationTimeout 2s
attr unit s
scalar RoutingScenario.node[0].app[0] "packets sent" 494
scalar RoutingScenario.node[0].app[0] "packets received" 0
scalar RoutingScenario.node[0].app[0] packetReceived:count 0
attr interpolationmode none
attr recordingmode count
attr source packetReceived
attr title "packets received, count"
scalar RoutingScenario.node[0].app[0] packetReceived:sum(packetBytes) 0
attr interpolationmode none
attr recordingmode sum(packetBytes)
attr source packetReceived
attr title "packets received, sum(packetBytes)"
statistic RoutingScenario.node[0].app[0] rcvdPkLifetime:stats
field count 0
field mean -nan
field stddev nan
field min nan
field max nan
field sum 0
field sqrsum 0
attr interpolationmode none
attr recordingmode stats
attr source dataAge(packetReceived)
attr title "received packet lifetime"
attr unit s
scalar RoutingScenario.node[0].app[0] packetSent:count 494
attr interpolationmode none
attr recordingmode count
attr source packetSent
attr title "packets sent, count"
scalar RoutingScenario.node[0].app[0] packetSent:sum(packetBytes) 494000
attr interpolationmode none
attr recordingmode sum(packetBytes)
attr source packetSent
attr title "packets sent, sum(packetBytes)"
par RoutingScenario.node[0].at typename "\"inet.common.MessageDispatcher\""
par RoutingScenario.node[0].at displayStringTextFormat "\"processed %p pk (%l)\""
par RoutingScenario.node[0].at forwardServiceRegistration true
par RoutingScenario.node[0].at forwardProtocolRegistration true
par RoutingScenario.node[0].routing typename "\"inet.routing.aodv.Aodv\""
par RoutingScenario.node[0].routing routingTableModule "\"^.ipv4.routingTable\""
par RoutingScenario.node[0].routing interfaceTableModule "\"RoutingScenario.node[0].interfaceTable\""
par RoutingScenario.node[0].routing networkProtocolModule "\"^.ipv4.ip\""
par RoutingScenario.node[0].routing askGratuitousRREP false
par RoutingScenario.node[0].routing useHelloMessages false
par RoutingScenario.node[0].routing useLocalRepair false
par RoutingScenario.node[0].routing destinationOnlyFlag false
par RoutingScenario.node[0].routing udpPort 654
par RoutingScenario.node[0].routing interface "\"wlan0\""
par RoutingScenario.node[0].routing maxPeriodicJitter 0.25s
attr unit s
par RoutingScenario.node[0].routing periodicJitter "uniform(0s, maxPeriodicJitter)"
attr unit s
par RoutingScenario.node[0].routing maxJitter 0.005s
attr unit s
par RoutingScenario.node[0].routing jitter "uniform(0ms, maxJitter)"
attr unit s
par RoutingScenario.node[0].routing helloInterval 1s
attr unit s
par RoutingScenario.node[0].routing allowedHelloLoss 2
par RoutingScenario.node[0].routing activeRouteTimeout 3s
attr unit s
par RoutingScenario.node[0].routing netDiameter 35
par RoutingScenario.node[0].routing nodeTraversalTime 0.04s
attr unit s
par RoutingScenario.node[0].routing rerrRatelimit 10
par RoutingScenario.node[0].routing rreqRetries 2
par RoutingScenario.node[0].routing rreqRatelimit 10
par RoutingScenario.node[0].routing timeoutBuffer 2
par RoutingScenario.node[0].routing ttlStart 2
par RoutingScenario.node[0].routing ttlIncrement 2
par RoutingScenario.node[0].routing ttlThreshold 7
par RoutingScenario.node[0].routing localAddTTL 2
par RoutingScenario.node[0].routing myRouteTimeout 6s
attr unit s
par RoutingScenario.node[0].routing deletePeriod 15s
attr unit s
par RoutingScenario.node[0].routing blacklistTimeout 5.6s
attr unit s
par RoutingScenario.node[0].routing netTraversalTime 2.8s
attr unit s
par RoutingScenario.node[0].routing nextHopWait 0.05s
attr unit s
par RoutingScenario.node[0].routing pathDiscoveryTime 5.6s
attr unit s
par RoutingScenario.node[0] typename "\"vanet.veins_inet.VeinsInetRoutingCar\""
par RoutingScenario.node[0] hasStatus false
par RoutingScenario.node[0] osgModel "\"\""
par RoutingScenario.node[0] osgModelColor "\"\""
par RoutingScenario.node[0] canvasImage "\"\""
par RoutingScenario.node[0] canvasImageColor "\"\""
par RoutingScenario.node[0] recordPcap false
par RoutingScenario.node[0] numPcapRecorders 0
par RoutingScenario.node[0] numLoInterfaces 1
par RoutingScenario.node[0] numWlanInterfaces 1
par RoutingScenario.node[0] numEthInterfaces 0
par RoutingScenario.node[0] numPppInterfaces 0
par RoutingScenario.node[0] numTunInterfaces 0
par RoutingScenario.node[0] numVirtInterfaces 0
par RoutingScenario.node[0] fcsMode "\"declared\""
attr enum declared,computed
par RoutingScenario.node[0] hasIpv4 true
par RoutingScenario.node[0] hasIpv6 false
par RoutingScenario.node[0] hasGn false
par RoutingScenario.node[0] forwarding true
par RoutingScenario.node[0] multicastForwarding false
par RoutingScenario.node[0] hasUdp true
par RoutingScenario.node[0] hasTcp true
par RoutingScenario.node[0] hasSctp false
par RoutingScenario.node[0] numApps 1
par RoutingScenario.node[0] router "\"Aodv\""
par RoutingScenario.node[1].radioIn[0].channel typename "\"ned.IdealChannel\""
par RoutingScenario.node[1].mobility typename "\"vanet.veins_inet.VeinsInetMobility\""
par RoutingScenario.node[1].mobility subjectModule "\"^\""
par RoutingScenario.node[1].mobility coordinateSystemModule "\"\""
par RoutingScenario.node[1].mobility displayStringTextFormat "\"p: %p\\nv: %v\""
attr mutable ""
par RoutingScenario.node[1].mobility updateDisplayString true
par RoutingScenario.node[1].mobility constraintAreaMinX "-inf m"
attr unit m
par RoutingScenario.node[1].mobility constraintAreaMinY "-inf m"
attr unit m
par RoutingScenario.node[1].mobility constraintAreaMinZ "-inf m"
attr unit m
par RoutingScenario.node[1].mobility constraintAreaMaxX "inf m"
attr unit m
par RoutingScenario.node[1].mobility constraintAreaMaxY "inf m"
attr unit m
par RoutingScenario.node[1].mobility constraintAreaMaxZ "inf m"
attr unit m
par RoutingScenario.node[1].mobility initFromDisplayString true
par RoutingScenario.node[1].interfaceTable typename "\"inet.networklayer.common.InterfaceTable\""
par RoutingScenario.node[1].interfaceTable displayAddresses false
par RoutingScenario.node[1].cb typename "\"inet.common.MessageDispatcher\""
par RoutingScenario.node[1].cb displayStringTextFormat "\"processed %p pk (%l)\""
par RoutingScenario.node[1].cb forwardServiceRegistration true
par RoutingScenario.node[1].cb forwardProtocolRegistration true
par RoutingScenario.node[1].bl typename "\"inet.common.MessageDispatcher\""
par RoutingScenario.node[1].bl displayStringTextFormat "\"processed %p pk (%l)\""
par RoutingScenario.node[1].bl forwardServiceRegistration true
par RoutingScenario.node[1].bl forwardProtocolRegistration true
par RoutingScenario.node[1].li typename "\"inet.common.MessageDispatcher\""
par RoutingScenario.node[1].li displayStringTextFormat "\"processed %p pk (%l)\""
par RoutingScenario.node[1].li forwardServiceRegistration true
par RoutingScenario.node[1].li forwardProtocolRegistration true
par RoutingScenario.node[1].lo[0].upperLayerIn.channel typename "\"ned.IdealChannel\""
par RoutingScenario.node[1].lo[0].lo.upperLayerOut.channel typename "\"ned.IdealChannel\""
par RoutingScenario.node[1].lo[0].lo typename "\"inet.linklayer.loopback.Loopback\""
par RoutingScenario.node[1].lo[0].lo interfaceTableModule "\"RoutingScenario.node[1].interfaceTable\""
par RoutingScenario.node[1].lo[0].lo mtu 4470B
attr unit B
scalar RoutingScenario.node[1].lo[0].lo rcvdPkFromHl:count 0
attr interpolationmode none
attr recordingmode count
attr source packetReceivedFromUpper
attr title "packets received from higher layer, count"
scalar RoutingScenario.node[1].lo[0].lo rcvdPkFromHl:sum(packetBytes) 0
attr interpolationmode none
attr recordingmode sum(packetBytes)
attr source packetReceivedFromUpper
attr title "packets received from higher layer, sum(packetBytes)"
scalar RoutingScenario.node[1].lo[0].lo passedUpPk:count 0
attr interpolationmode none
attr recordingmode count
attr source packetSentToUpper
attr title "packets passed to higher layer, count"
scalar RoutingScenario.node[1].lo[0].lo passedUpPk:sum(packetBytes) 0
attr interpolationmode none
attr recordingmode sum(packetBytes)
attr source packetSentToUpper
attr title "packets passed to higher layer, sum(packetBytes)"
[...]
par RoutingScenario.node[1].ipv4.transportIn.channel typename "\"ned.IdealChannel\""
par RoutingScenario.node[1].ipv4.up.out[0].channel typename "\"ned.IdealChannel\""
par RoutingScenario.node[1].ipv4.lp.out[2].channel typename "\"ned.IdealChannel\""
par RoutingScenario.node[1].ipv4.ifIn.channel typename "\"ned.IdealChannel\""
par RoutingScenario.node[1].ipv4.configurator typename "\"inet.networklayer.configurator.ipv4.HostAutoConfigurator\""
par RoutingScenario.node[1].ipv4.configurator interfaceTableModule "\"RoutingScenario.node[1].interfaceTable\""
par RoutingScenario.node[1].ipv4.configurator interfaces "\"wlan0\""
par RoutingScenario.node[1].ipv4.configurator addressBase "\"10.0.0.0\""
par RoutingScenario.node[1].ipv4.configurator netmask "\"255.0.0.0\""
par RoutingScenario.node[1].ipv4.configurator mcastGroups "\"224.0.0.1\""
par RoutingScenario.node[1].ipv4.routingTable typename "\"inet.networklayer.ipv4.Ipv4RoutingTable\""
par RoutingScenario.node[1].ipv4.routingTable interfaceTableModule "\"RoutingScenario.node[1].interfaceTable\""
par RoutingScenario.node[1].ipv4.routingTable routerId "\"auto\""
par RoutingScenario.node[1].ipv4.routingTable netmaskRoutes "\"*\""
par RoutingScenario.node[1].ipv4.routingTable forwarding true
par RoutingScenario.node[1].ipv4.routingTable multicastForwarding false
par RoutingScenario.node[1].ipv4.routingTable useAdminDist false
par RoutingScenario.node[1].ipv4.routingTable routingFile "\"\""
par RoutingScenario.node[1].ipv4.natTable typename "\"inet.networklayer.ipv4.Ipv4NatTable\""
par RoutingScenario.node[1].ipv4.natTable networkProtocolModule "\"^.ip\""
par RoutingScenario.node[1].ipv4.natTable config "<config/> at content:1"
par RoutingScenario.node[1].ipv4.up typename "\"inet.common.MessageDispatcher\""
par RoutingScenario.node[1].ipv4.up displayStringTextFormat "\"processed %p pk (%l)\""
par RoutingScenario.node[1].ipv4.up forwardServiceRegistration true
par RoutingScenario.node[1].ipv4.up forwardProtocolRegistration true
par RoutingScenario.node[1].ipv4.igmp typename "\"inet.networklayer.ipv4.Igmpv2\""
par RoutingScenario.node[1].ipv4.igmp interfaceTableModule "\"RoutingScenario.node[1].interfaceTable\""
par RoutingScenario.node[1].ipv4.igmp routingTableModule "\"RoutingScenario.node[1].ipv4.routingTable\""
par RoutingScenario.node[1].ipv4.igmp crcMode "\"declared\""
attr enum declared,computed
par RoutingScenario.node[1].ipv4.igmp enabled true
par RoutingScenario.node[1].ipv4.igmp robustnessVariable 2
par RoutingScenario.node[1].ipv4.igmp queryInterval 125s
attr unit s
par RoutingScenario.node[1].ipv4.igmp queryResponseInterval 10s
attr unit s
par RoutingScenario.node[1].ipv4.igmp groupMembershipInterval 260s
attr unit s
par RoutingScenario.node[1].ipv4.igmp otherQuerierPresentInterval 255s
attr unit s
par RoutingScenario.node[1].ipv4.igmp startupQueryInterval 31.25s
attr unit s
par RoutingScenario.node[1].ipv4.igmp startupQueryCount 2
par RoutingScenario.node[1].ipv4.igmp lastMemberQueryInterval 1s
attr unit s
par RoutingScenario.node[1].ipv4.igmp lastMemberQueryCount 2
par RoutingScenario.node[1].ipv4.igmp unsolicitedReportInterval 10s
attr unit s
par RoutingScenario.node[1].ipv4.icmp typename "\"inet.networklayer.ipv4.Icmp\""
par RoutingScenario.node[1].ipv4.icmp interfaceTableModule "\"RoutingScenario.node[1].interfaceTable\""
par RoutingScenario.node[1].ipv4.icmp routingTableModule "\"RoutingScenario.node[1].ipv4.routingTable\""
par RoutingScenario.node[1].ipv4.icmp crcMode "\"declared\""
attr enum declared,computed
attr mutable ""
par RoutingScenario.node[1].ipv4.icmp quoteLength 8B
attr mutable ""
attr unit B
par RoutingScenario.node[1].ipv4.mp typename "\"inet.common.MessageDispatcher\""
par RoutingScenario.node[1].ipv4.mp displayStringTextFormat "\"processed %p pk (%l)\""
par RoutingScenario.node[1].ipv4.mp forwardServiceRegistration true
par RoutingScenario.node[1].ipv4.mp forwardProtocolRegistration true
par RoutingScenario.node[1].ipv4.ip typename "\"inet.networklayer.ipv4.Ipv4\""
par RoutingScenario.node[1].ipv4.ip interfaceTableModule "\"RoutingScenario.node[1].interfaceTable\""
par RoutingScenario.node[1].ipv4.ip routingTableModule "\"RoutingScenario.node[1].ipv4.routingTable\""
par RoutingScenario.node[1].ipv4.ip arpModule "\"RoutingScenario.node[1].ipv4.arp\""
par RoutingScenario.node[1].ipv4.ip icmpModule "\"RoutingScenario.node[1].ipv4.icmp\""
par RoutingScenario.node[1].ipv4.ip crcMode "\"declared\""
attr enum declared,computed
par RoutingScenario.node[1].ipv4.ip timeToLive 32
par RoutingScenario.node[1].ipv4.ip multicastTimeToLive 32
par RoutingScenario.node[1].ipv4.ip fragmentTimeout 60s
attr unit s
par RoutingScenario.node[1].ipv4.ip limitedBroadcast false
par RoutingScenario.node[1].ipv4.ip directBroadcastInterfaces "\"\""
scalar RoutingScenario.node[1].ipv4.ip packetDropAddressResolutionFailed:count 0
attr interpolationmode none
attr recordingmode count
attr source packetDropReasonIsAddressResolutionFailed(packetDropped)
attr title "packet drop: address resolution failed, count"
scalar RoutingScenario.node[1].ipv4.ip packetDropAddressResolutionFailed:sum(packetBytes) 0
attr interpolationmode none
attr recordingmode sum(packetBytes)
attr source packetDropReasonIsAddressResolutionFailed(packetDropped)
attr title "packet drop: address resolution failed, sum(packetBytes)"
scalar RoutingScenario.node[1].ipv4.ip packetDropHopLimitReached:count 0
attr interpolationmode none
attr recordingmode count
attr source packetDropReasonIsHopLimitReached(packetDropped)
attr title "packet drop: hop limit reached, count"
scalar RoutingScenario.node[1].ipv4.ip packetDropHopLimitReached:sum(packetBytes) 0
attr interpolationmode none
attr recordingmode sum(packetBytes)
attr source packetDropReasonIsHopLimitReached(packetDropped)
attr title "packet drop: hop limit reached, sum(packetBytes)"
scalar RoutingScenario.node[1].ipv4.ip packetDropForwardingDisabled:count 0
attr interpolationmode none
attr recordingmode count
attr source packetDropReasonIsForwardingDisabled(packetDropped)
attr title "packet drop: forwarding disabled, count"
scalar RoutingScenario.node[1].ipv4.ip packetDropForwardingDisabled:sum(packetBytes) 0
attr interpolationmode none
attr recordingmode sum(packetBytes)
attr source packetDropReasonIsForwardingDisabled(packetDropped)
attr title "packet drop: forwarding disabled, sum(packetBytes)"
scalar RoutingScenario.node[1].ipv4.ip packetDropNoInterfaceFound:count 0
attr interpolationmode none
attr recordingmode count
attr source packetDropReasonIsNoInterfaceFound(packetDropped)
attr title "packet drop: no interface found, count"
scalar RoutingScenario.node[1].ipv4.ip packetDropNoInterfaceFound:sum(packetBytes) 0
attr interpolationmode none
attr recordingmode sum(packetBytes)
attr source packetDropReasonIsNoInterfaceFound(packetDropped)
attr title "packet drop: no interface found, sum(packetBytes)"
scalar RoutingScenario.node[1].ipv4.ip packetDropNoRouteFound:count 0
attr interpolationmode none
attr recordingmode count
attr source packetDropReasonIsNoRouteFound(packetDropped)
attr title "packet drop: no route found, count"
scalar RoutingScenario.node[1].ipv4.ip packetDropNoRouteFound:sum(packetBytes) 0
attr interpolationmode none
attr recordingmode sum(packetBytes)
attr source packetDropReasonIsNoRouteFound(packetDropped)
attr title "packet drop: no route found, sum(packetBytes)"
scalar RoutingScenario.node[1].ipv4.ip packetDropUndefined:count 0
attr interpolationmode none
attr recordingmode count
attr source packetDropReasonIsUndefined(packetDropped)
attr title "packet drop: undefined, count"
scalar RoutingScenario.node[1].ipv4.ip packetDropUndefined:sum(packetBytes) 0
attr interpolationmode none
attr recordingmode sum(packetBytes)
attr source packetDropReasonIsUndefined(packetDropped)
attr title "packet drop: undefined, sum(packetBytes)"
par RoutingScenario.node[1].ipv4.arp typename "\"inet.networklayer.arp.ipv4.Arp\""
par RoutingScenario.node[1].ipv4.arp interfaceTableModule "\"RoutingScenario.node[1].interfaceTable\""
par RoutingScenario.node[1].ipv4.arp routingTableModule "\"RoutingScenario.node[1].ipv4.routingTable\""
par RoutingScenario.node[1].ipv4.arp retryTimeout 1s
attr unit s
par RoutingScenario.node[1].ipv4.arp retryCount 3
par RoutingScenario.node[1].ipv4.arp cacheTimeout 120s
attr unit s
par RoutingScenario.node[1].ipv4.arp proxyArpInterfaces "\"\""
scalar RoutingScenario.node[1].ipv4.arp arpResolutionFailed:count 0
attr recordingmode count
attr title "ARP failed resolutions, count"
scalar RoutingScenario.node[1].ipv4.arp arpResolutionCompleted:count 1
attr recordingmode count
attr title "ARP completed resolutions, count"
scalar RoutingScenario.node[1].ipv4.arp arpResolutionInitiated:count 0
attr recordingmode count
attr title "ARP initiated resolutions, count"
scalar RoutingScenario.node[1].ipv4.arp arpReplySent:count 1
attr recordingmode count
attr source arpReplySent
attr title "ARP replies sent, count"
scalar RoutingScenario.node[1].ipv4.arp arpReplySent:sum(packetBytes) 28
attr recordingmode sum(packetBytes)
attr source arpReplySent
attr title "ARP replies sent, sum(packetBytes)"
scalar RoutingScenario.node[1].ipv4.arp arpRequestSent:count 0
attr recordingmode count
attr source arpRequestSent
attr title "ARP request sent, count"
scalar RoutingScenario.node[1].ipv4.arp arpRequestSent:sum(packetBytes) 0
attr recordingmode sum(packetBytes)
attr source arpRequestSent
attr title "ARP request sent, sum(packetBytes)"
par RoutingScenario.node[1].ipv4.lp typename "\"inet.common.MessageDispatcher\""
par RoutingScenario.node[1].ipv4.lp displayStringTextFormat "\"processed %p pk (%l)\""
par RoutingScenario.node[1].ipv4.lp forwardServiceRegistration true
par RoutingScenario.node[1].ipv4.lp forwardProtocolRegistration true
par RoutingScenario.node[1].ipv4 typename "\"inet.networklayer.ipv4.Ipv4NetworkLayer\""
par RoutingScenario.node[1].ipv4 forwarding true
par RoutingScenario.node[1].ipv4 multicastForwarding false
par RoutingScenario.node[1].ipv4 interfaceTableModule "\"RoutingScenario.node[1].interfaceTable\""
par RoutingScenario.node[1].ipv4 displayStringTextFormat "\"%i\""
par RoutingScenario.node[1].nl typename "\"inet.common.MessageDispatcher\""
par RoutingScenario.node[1].nl displayStringTextFormat "\"processed %p pk (%l)\""
par RoutingScenario.node[1].nl forwardServiceRegistration true
par RoutingScenario.node[1].nl forwardProtocolRegistration true
par RoutingScenario.node[1].udp typename "\"inet.transportlayer.udp.Udp\""
par RoutingScenario.node[1].udp interfaceTableModule "\"RoutingScenario.node[1].interfaceTable\""
par RoutingScenario.node[1].udp icmpModule "\"^.ipv4.icmp\""
par RoutingScenario.node[1].udp icmpv6Module "\"^.ipv6.icmpv6\""
par RoutingScenario.node[1].udp crcMode "\"declared\""
attr enum disabled,declared,computed
par RoutingScenario.node[1].udp defaultMulticastLoop true
scalar RoutingScenario.node[1].udp packetReceived:count 1
attr interpolationmode none
attr recordingmode count
attr source packetReceived
attr title "packets received, count"
scalar RoutingScenario.node[1].udp packetReceived:sum(packetBytes) 28
attr interpolationmode none
attr recordingmode sum(packetBytes)
attr source packetReceived
attr title "packets received, sum(packetBytes)"
scalar RoutingScenario.node[1].udp packetSent:count 66
attr interpolationmode none
attr recordingmode count
attr source packetSent
attr title "packets sent, count"
scalar RoutingScenario.node[1].udp packetSent:sum(packetBytes) 65552
attr interpolationmode none
attr recordingmode sum(packetBytes)
attr source packetSent
attr title "packets sent, sum(packetBytes)"
scalar RoutingScenario.node[1].udp passedUpPk:count 1
attr interpolationmode none
attr recordingmode count
attr source packetSentToUpper
attr title "packets passed up, count"
scalar RoutingScenario.node[1].udp droppedPkWrongPort:count 0
attr interpolationmode none
attr recordingmode count
attr source packetDropReasonIsNoPortFound(packetDropped)
attr title "packets dropped (wrong port), count"
scalar RoutingScenario.node[1].udp droppedPkBadChecksum:count 0
attr interpolationmode none
attr recordingmode count
attr source packetDropReasonIsIncorrectlyReceived(packetDropped)
attr title "packets dropped (checksum error), count"
par RoutingScenario.node[1].tcp typename "\"inet.transportlayer.tcp.Tcp\""
par RoutingScenario.node[1].tcp crcMode "\"declared\""
attr enum declared,computed
par RoutingScenario.node[1].tcp advertisedWindow 7504
par RoutingScenario.node[1].tcp delayedAcksEnabled false
par RoutingScenario.node[1].tcp nagleEnabled true
par RoutingScenario.node[1].tcp limitedTransmitEnabled false
par RoutingScenario.node[1].tcp increasedIWEnabled false
par RoutingScenario.node[1].tcp sackSupport false
par RoutingScenario.node[1].tcp windowScalingSupport false
par RoutingScenario.node[1].tcp windowScalingFactor -1
par RoutingScenario.node[1].tcp timestampSupport false
par RoutingScenario.node[1].tcp mss 536
par RoutingScenario.node[1].tcp msl 120s
attr unit s
par RoutingScenario.node[1].tcp tcpAlgorithmClass "\"TcpReno\""
attr enum TcpVegas,TcpWestwood,TcpNewReno,TcpReno,TcpTahoe,TcpNoCongestionControl
par RoutingScenario.node[1].tcp useDataNotification false
par RoutingScenario.node[1].tcp dupthresh 3
par RoutingScenario.node[1].tcp initialSsthresh 4294967295
par RoutingScenario.node[1].tcp stopOperationExtraTime 0s
attr unit s
par RoutingScenario.node[1].tcp stopOperationTimeout 2s
attr unit s
par RoutingScenario.node[1].tcp ecnWillingness false
par RoutingScenario.node[1].tcp dctcpGamma 0.0625
par RoutingScenario.node[1].tn typename "\"inet.common.MessageDispatcher\""
par RoutingScenario.node[1].tn displayStringTextFormat "\"processed %p pk (%l)\""
par RoutingScenario.node[1].tn forwardServiceRegistration true
par RoutingScenario.node[1].tn forwardProtocolRegistration true
par RoutingScenario.node[1].app[0] typename "\"inet.applications.udpapp.UdpBasicApp\""
par RoutingScenario.node[1].app[0] interfaceTableModule "\"RoutingScenario.node[1].interfaceTable\""
par RoutingScenario.node[1].app[0] clockModule "\"\""
par RoutingScenario.node[1].app[0] localPort -1
par RoutingScenario.node[1].app[0] destAddresses "\"node[*]\""
par RoutingScenario.node[1].app[0] localAddress "\"\""
par RoutingScenario.node[1].app[0] packetName "\"UDPData\""
par RoutingScenario.node[1].app[0] destPort 5000
par RoutingScenario.node[1].app[0] messageLength 1000B
attr unit B
par RoutingScenario.node[1].app[0] startTime 0.00550834s
attr unit s
par RoutingScenario.node[1].app[0] stopTime -1s
attr unit s
par RoutingScenario.node[1].app[0] sendInterval exponential(12ms)
attr unit s
par RoutingScenario.node[1].app[0] timeToLive -1
par RoutingScenario.node[1].app[0] dontFragment false
par RoutingScenario.node[1].app[0] dscp -1
par RoutingScenario.node[1].app[0] tos -1
par RoutingScenario.node[1].app[0] multicastInterface "\"\""
par RoutingScenario.node[1].app[0] receiveBroadcast false
par RoutingScenario.node[1].app[0] joinLocalMulticastGroups false
par RoutingScenario.node[1].app[0] stopOperationExtraTime -1s
attr unit s
par RoutingScenario.node[1].app[0] stopOperationTimeout 2s
attr unit s
scalar RoutingScenario.node[1].app[0] "packets sent" 65
scalar RoutingScenario.node[1].app[0] "packets received" 0
scalar RoutingScenario.node[1].app[0] packetReceived:count 0
attr interpolationmode none
attr recordingmode count
attr source packetReceived
attr title "packets received, count"
scalar RoutingScenario.node[1].app[0] packetReceived:sum(packetBytes) 0
attr interpolationmode none
attr recordingmode sum(packetBytes)
attr source packetReceived
attr title "packets received, sum(packetBytes)"
statistic RoutingScenario.node[1].app[0] rcvdPkLifetime:stats
field count 0
field mean -nan
field stddev nan
field min nan
field max nan
field sum 0
field sqrsum 0
attr interpolationmode none
attr recordingmode stats
attr source dataAge(packetReceived)
attr title "received packet lifetime"
attr unit s
scalar RoutingScenario.node[1].app[0] packetSent:count 65
attr interpolationmode none
attr recordingmode count
attr source packetSent
attr title "packets sent, count"
scalar RoutingScenario.node[1].app[0] packetSent:sum(packetBytes) 65000
attr interpolationmode none
attr recordingmode sum(packetBytes)
attr source packetSent
attr title "packets sent, sum(packetBytes)"
par RoutingScenario.node[1].at typename "\"inet.common.MessageDispatcher\""
par RoutingScenario.node[1].at displayStringTextFormat "\"processed %p pk (%l)\""
par RoutingScenario.node[1].at forwardServiceRegistration true
par RoutingScenario.node[1].at forwardProtocolRegistration true
par RoutingScenario.node[1].routing typename "\"inet.routing.aodv.Aodv\""
par RoutingScenario.node[1].routing routingTableModule "\"^.ipv4.routingTable\""
par RoutingScenario.node[1].routing interfaceTableModule "\"RoutingScenario.node[1].interfaceTable\""
par RoutingScenario.node[1].routing networkProtocolModule "\"^.ipv4.ip\""
par RoutingScenario.node[1].routing askGratuitousRREP false
par RoutingScenario.node[1].routing useHelloMessages false
par RoutingScenario.node[1].routing useLocalRepair false
par RoutingScenario.node[1].routing destinationOnlyFlag false
par RoutingScenario.node[1].routing udpPort 654
par RoutingScenario.node[1].routing interface "\"wlan0\""
par RoutingScenario.node[1].routing maxPeriodicJitter 0.25s
attr unit s
par RoutingScenario.node[1].routing periodicJitter "uniform(0s, maxPeriodicJitter)"
attr unit s
par RoutingScenario.node[1].routing maxJitter 0.005s
attr unit s
par RoutingScenario.node[1].routing jitter "uniform(0ms, maxJitter)"
attr unit s
par RoutingScenario.node[1].routing helloInterval 1s
attr unit s
par RoutingScenario.node[1].routing allowedHelloLoss 2
par RoutingScenario.node[1].routing activeRouteTimeout 3s
attr unit s
par RoutingScenario.node[1].routing netDiameter 35
par RoutingScenario.node[1].routing nodeTraversalTime 0.04s
attr unit s
par RoutingScenario.node[1].routing rerrRatelimit 10
par RoutingScenario.node[1].routing rreqRetries 2
par RoutingScenario.node[1].routing rreqRatelimit 10
par RoutingScenario.node[1].routing timeoutBuffer 2
par RoutingScenario.node[1].routing ttlStart 2
par RoutingScenario.node[1].routing ttlIncrement 2
par RoutingScenario.node[1].routing ttlThreshold 7
par RoutingScenario.node[1].routing localAddTTL 2
par RoutingScenario.node[1].routing myRouteTimeout 6s
attr unit s
par RoutingScenario.node[1].routing deletePeriod 15s
attr unit s
par RoutingScenario.node[1].routing blacklistTimeout 5.6s
attr unit s
par RoutingScenario.node[1].routing netTraversalTime 2.8s
attr unit s
par RoutingScenario.node[1].routing nextHopWait 0.05s
attr unit s
par RoutingScenario.node[1].routing pathDiscoveryTime 5.6s
attr unit s
par RoutingScenario.node[1] typename "\"vanet.veins_inet.VeinsInetRoutingCar\""
par RoutingScenario.node[1] hasStatus false
par RoutingScenario.node[1] osgModel "\"\""
par RoutingScenario.node[1] osgModelColor "\"\""
par RoutingScenario.node[1] canvasImage "\"\""
par RoutingScenario.node[1] canvasImageColor "\"\""
par RoutingScenario.node[1] recordPcap false
par RoutingScenario.node[1] numPcapRecorders 0
par RoutingScenario.node[1] numLoInterfaces 1
par RoutingScenario.node[1] numWlanInterfaces 1
par RoutingScenario.node[1] numEthInterfaces 0
par RoutingScenario.node[1] numPppInterfaces 0
par RoutingScenario.node[1] numTunInterfaces 0
par RoutingScenario.node[1] numVirtInterfaces 0
par RoutingScenario.node[1] fcsMode "\"declared\""
attr enum declared,computed
par RoutingScenario.node[1] hasIpv4 true
par RoutingScenario.node[1] hasIpv6 false
par RoutingScenario.node[1] hasGn false
par RoutingScenario.node[1] forwarding true
par RoutingScenario.node[1] multicastForwarding false
par RoutingScenario.node[1] hasUdp true
par RoutingScenario.node[1] hasTcp true
par RoutingScenario.node[1] hasSctp false
par RoutingScenario.node[1] numApps 1
par RoutingScenario.node[1] router "\"Aodv\""
par RoutingScenario typename "\"vanet.simulations.v2v.RoutingScenario\""

