version 3
run General-0-20230705-04:34:23-6036
attr configname General
attr datetime 20230705-04:34:23
attr datetimef 20230705-043423
attr experiment General
attr inifile omnetpp.ini
attr iterationvars ""
attr iterationvarsd ""
attr iterationvarsf ""
attr measurement ""
attr network Spoofing
attr processid 6036
attr repetition 0
attr replication #0
attr resultdir results
attr runnumber 0
attr seedset 0
config image-path ../../images:../../../inet4.4/images:../../../veins-veins-5.2/images
config network Spoofing
config sim-time-limit 400s
config debug-on-errors true
config cmdenv-express-mode true
config image-path ../../../../images
config *.playgroundSizeX 2500m
config *.playgroundSizeY 2500m
config *.playgroundSizeZ 50m
config *.annotations.draw true
config *.manager.updateInterval 1s
config *.manager.host "\"localhost\""
config *.manager.port 9999
config *.manager.autoShutdown true
config *.manager.launchConfig "xmldoc(\"unb.launchd.xml\")"
config *.manager.moduleType "\"spoofing.veins_inet.VeinsInetCar\""
config *.node[*].numApps 1
config *.node[0].app[0].typename spoofing.veins_inet.Attack
config *.node[1..12].app[0].typename spoofing.veins_inet.VeinsInetSampleApplication
config *.node[*].app[0].interface "\"wlan0\""
config *.node[*].wlan[0].opMode "\"p\""
config *.node[*].wlan[0].radio.typename Ieee80211DimensionalRadio
config *.node[*].wlan[0].radio.bandName "\"5.9 GHz\""
config *.node[*].wlan[0].radio.channelNumber 3
config *.node[*].wlan[0].radio.transmitter.power 20mW
config *.node[*].wlan[0].radio.bandwidth "10 MHz"
config *.node[*].wlan[*].radio.antenna.mobility.typename AttachedMobility
config *.node[*].wlan[*].radio.antenna.mobility.mobilityModule "\"^.^.^.^.mobility\""
config *.node[*].wlan[*].radio.antenna.mobility.offsetX -2.5m
config *.node[*].wlan[*].radio.antenna.mobility.offsetZ 1.5m
config *.node[*].wlan[*].radio.antenna.mobility.constraintAreaMinX 0m
config *.node[*].wlan[*].radio.antenna.mobility.constraintAreaMaxX 0m
config *.node[*].wlan[*].radio.antenna.mobility.constraintAreaMinY 0m
config *.node[*].wlan[*].radio.antenna.mobility.constraintAreaMaxY 0m
config *.node[*].wlan[*].radio.antenna.mobility.constraintAreaMinZ 0m
config *.node[*].wlan[*].radio.antenna.mobility.constraintAreaMaxZ 0m
config *.node[*].ipv4.configurator.typename HostAutoConfigurator
config *.node[*].ipv4.configurator.interfaces "\"wlan0\""
config *.node[*].ipv4.configurator.mcastGroups "\"224.0.0.1\""
config *.node[*].mobility.typename VeinsInetMobility
config *.radioMedium.obstacleLoss.typename IdealObstacleLoss
config **.vector-recording true

vector 0 Spoofing.node[0].wlan[0].mac.dcf frameSequenceActive:vector ETV
attr autoWarmupFilter false
attr interpolationmode sample-hold
attr recordingmode vector
attr source warmup(count(frameSequenceStarted)-count(frameSequenceFinished))
attr title "frame sequence active"
vector 1 Spoofing.node[0].wlan[0].mac.dcf.channelAccess.inProgressFrames queueLength:vector ETV
attr autoWarmupFilter false
attr interpolationmode sample-hold
attr recordingmode vector
attr source "warmup(count(packetEnqueued) - count(packetDequeued))"
attr title "queue length"
vector 2 Spoofing.node[0].wlan[0].mac.dcf.channelAccess.contention backoffActive:vector ETV
attr autoWarmupFilter false
attr interpolationmode sample-hold
attr recordingmode vector
attr source warmup(count(backoffStarted)-count(backoffStopped))
attr title "backoff active"
vector 3 Spoofing.node[0].udp passedUpPk:vector(count) ETV
attr interpolationmode none
attr recordingmode vector(count)
attr source packetSentToUpper
attr title "packets passed up, count"
vector 4 Spoofing.node[0].udp droppedPkWrongPort:vector(count) ETV
attr interpolationmode none
attr recordingmode vector(count)
attr source packetDropReasonIsNoPortFound(packetDropped)
attr title "packets dropped (wrong port), count"
vector 5 Spoofing.node[0].udp droppedPkBadChecksum:vector(count) ETV
attr interpolationmode none
attr recordingmode vector(count)
attr source packetDropReasonIsIncorrectlyReceived(packetDropped)
attr title "packets dropped (checksum error), count"
vector 6 Spoofing.node[0].wlan[0].radio radioMode:vector ETV
attr interpolationmode sample-hold
attr recordingmode vector
attr source radioModeChanged
attr title "Radio mode"
vector 7 Spoofing.node[0].wlan[0].radio radioChannel:vector ETV
attr interpolationmode sample-hold
attr recordingmode vector
attr source radioChannelChanged
attr title "Radio channel"
vector 8 Spoofing.node[0].wlan[0].radio receptionState:vector ETV
attr interpolationmode sample-hold
attr recordingmode vector
attr source receptionStateChanged
attr title "Radio reception state"
vector 9 Spoofing.node[0].wlan[0].mac.dcf.channelAccess.contention stateChanged:vector ETV
attr enum IDLE,DEFER,IFS_AND_BACKOFF
attr interpolationmode none
attr recordingmode vector
attr title "contention state changed"
attr type enum
vector 10 Spoofing.node[0].wlan[0].mac.dcf.recoveryProcedure contentionWindowChanged:vector ETV
attr interpolationmode sample-hold
attr recordingmode vector
attr title "contention window"
vector 11 Spoofing.node[1].wlan[0].mac.dcf frameSequenceActive:vector ETV
attr autoWarmupFilter false
attr interpolationmode sample-hold
attr recordingmode vector
attr source warmup(count(frameSequenceStarted)-count(frameSequenceFinished))
attr title "frame sequence active"
vector 12 Spoofing.node[1].wlan[0].mac.dcf.channelAccess.inProgressFrames queueLength:vector ETV
attr autoWarmupFilter false
attr interpolationmode sample-hold
attr recordingmode vector
attr source "warmup(count(packetEnqueued) - count(packetDequeued))"
attr title "queue length"
vector 13 Spoofing.node[1].wlan[0].mac.dcf.channelAccess.contention backoffActive:vector ETV
attr autoWarmupFilter false
attr interpolationmode sample-hold
attr recordingmode vector
attr source warmup(count(backoffStarted)-count(backoffStopped))
attr title "backoff active"
vector 14 Spoofing.node[1].udp passedUpPk:vector(count) ETV
attr interpolationmode none
attr recordingmode vector(count)
attr source packetSentToUpper
attr title "packets passed up, count"
vector 15 Spoofing.node[1].udp droppedPkWrongPort:vector(count) ETV
attr interpolationmode none
attr recordingmode vector(count)
attr source packetDropReasonIsNoPortFound(packetDropped)
attr title "packets dropped (wrong port), count"
vector 16 Spoofing.node[1].udp droppedPkBadChecksum:vector(count) ETV
attr interpolationmode none
attr recordingmode vector(count)
attr source packetDropReasonIsIncorrectlyReceived(packetDropped)
attr title "packets dropped (checksum error), count"
vector 17 Spoofing.node[1].wlan[0].radio radioMode:vector ETV
attr interpolationmode sample-hold
attr recordingmode vector
attr source radioModeChanged
attr title "Radio mode"
vector 18 Spoofing.node[1].wlan[0].radio radioChannel:vector ETV
attr interpolationmode sample-hold
attr recordingmode vector
attr source radioChannelChanged
attr title "Radio channel"
vector 19 Spoofing.node[1].wlan[0].radio receptionState:vector ETV
attr interpolationmode sample-hold
attr recordingmode vector
attr source receptionStateChanged
attr title "Radio reception state"
vector 20 Spoofing.node[1].wlan[0].mac.dcf.channelAccess.contention stateChanged:vector ETV
attr enum IDLE,DEFER,IFS_AND_BACKOFF
attr interpolationmode none
attr recordingmode vector
attr title "contention state changed"
attr type enum
vector 21 Spoofing.node[1].wlan[0].mac.dcf.recoveryProcedure contentionWindowChanged:vector ETV
attr interpolationmode sample-hold
attr recordingmode vector
attr title "contention window"
vector 22 Spoofing.node[2].wlan[0].mac.dcf frameSequenceActive:vector ETV
attr autoWarmupFilter false
attr interpolationmode sample-hold
attr recordingmode vector
attr source warmup(count(frameSequenceStarted)-count(frameSequenceFinished))
attr title "frame sequence active"
vector 23 Spoofing.node[2].wlan[0].mac.dcf.channelAccess.inProgressFrames queueLength:vector ETV
attr autoWarmupFilter false
attr interpolationmode sample-hold
attr recordingmode vector
attr source "warmup(count(packetEnqueued) - count(packetDequeued))"
attr title "queue length"
vector 24 Spoofing.node[2].wlan[0].mac.dcf.channelAccess.contention backoffActive:vector ETV
attr autoWarmupFilter false
attr interpolationmode sample-hold
attr recordingmode vector
attr source warmup(count(backoffStarted)-count(backoffStopped))
attr title "backoff active"
vector 25 Spoofing.node[2].udp passedUpPk:vector(count) ETV
attr interpolationmode none
attr recordingmode vector(count)
attr source packetSentToUpper
attr title "packets passed up, count"
vector 26 Spoofing.node[2].udp droppedPkWrongPort:vector(count) ETV
attr interpolationmode none
attr recordingmode vector(count)
attr source packetDropReasonIsNoPortFound(packetDropped)
attr title "packets dropped (wrong port), count"
vector 27 Spoofing.node[2].udp droppedPkBadChecksum:vector(count) ETV
attr interpolationmode none
attr recordingmode vector(count)
attr source packetDropReasonIsIncorrectlyReceived(packetDropped)
attr title "packets dropped (checksum error), count"
vector 28 Spoofing.node[2].wlan[0].radio radioMode:vector ETV
attr interpolationmode sample-hold
attr recordingmode vector
attr source radioModeChanged
attr title "Radio mode"
vector 29 Spoofing.node[2].wlan[0].radio radioChannel:vector ETV
attr interpolationmode sample-hold
attr recordingmode vector
attr source radioChannelChanged
attr title "Radio channel"
vector 30 Spoofing.node[2].wlan[0].radio receptionState:vector ETV
attr interpolationmode sample-hold
attr recordingmode vector
attr source receptionStateChanged
attr title "Radio reception state"
vector 31 Spoofing.node[2].wlan[0].mac.dcf.channelAccess.contention stateChanged:vector ETV
attr enum IDLE,DEFER,IFS_AND_BACKOFF
attr interpolationmode none
attr recordingmode vector
attr title "contention state changed"
attr type enum
vector 32 Spoofing.node[2].wlan[0].mac.dcf.recoveryProcedure contentionWindowChanged:vector ETV
attr interpolationmode sample-hold
attr recordingmode vector
attr title "contention window"
vector 33 Spoofing.node[3].wlan[0].mac.dcf frameSequenceActive:vector ETV
attr autoWarmupFilter false
attr interpolationmode sample-hold
attr recordingmode vector
attr source warmup(count(frameSequenceStarted)-count(frameSequenceFinished))
attr title "frame sequence active"
vector 34 Spoofing.node[3].wlan[0].mac.dcf.channelAccess.inProgressFrames queueLength:vector ETV
attr autoWarmupFilter false
attr interpolationmode sample-hold
attr recordingmode vector
attr source "warmup(count(packetEnqueued) - count(packetDequeued))"
attr title "queue length"
vector 35 Spoofing.node[3].wlan[0].mac.dcf.channelAccess.contention backoffActive:vector ETV
attr autoWarmupFilter false
attr interpolationmode sample-hold
attr recordingmode vector
attr source warmup(count(backoffStarted)-count(backoffStopped))
attr title "backoff active"
vector 36 Spoofing.node[3].udp passedUpPk:vector(count) ETV
attr interpolationmode none
attr recordingmode vector(count)
attr source packetSentToUpper
attr title "packets passed up, count"
vector 37 Spoofing.node[3].udp droppedPkWrongPort:vector(count) ETV
attr interpolationmode none
attr recordingmode vector(count)
attr source packetDropReasonIsNoPortFound(packetDropped)
attr title "packets dropped (wrong port), count"
vector 38 Spoofing.node[3].udp droppedPkBadChecksum:vector(count) ETV
attr interpolationmode none
attr recordingmode vector(count)
attr source packetDropReasonIsIncorrectlyReceived(packetDropped)
attr title "packets dropped (checksum error), count"
vector 39 Spoofing.node[3].wlan[0].radio radioMode:vector ETV
attr interpolationmode sample-hold
attr recordingmode vector
attr source radioModeChanged
attr title "Radio mode"
vector 40 Spoofing.node[3].wlan[0].radio radioChannel:vector ETV
attr interpolationmode sample-hold
attr recordingmode vector
attr source radioChannelChanged
attr title "Radio channel"
vector 41 Spoofing.node[3].wlan[0].radio receptionState:vector ETV
attr interpolationmode sample-hold
attr recordingmode vector
attr source receptionStateChanged
attr title "Radio reception state"
vector 42 Spoofing.node[3].wlan[0].mac.dcf.channelAccess.contention stateChanged:vector ETV
attr enum IDLE,DEFER,IFS_AND_BACKOFF
attr interpolationmode none
attr recordingmode vector
attr title "contention state changed"
attr type enum
vector 43 Spoofing.node[3].wlan[0].mac.dcf.recoveryProcedure contentionWindowChanged:vector ETV
attr interpolationmode sample-hold
attr recordingmode vector
attr title "contention window"
vector 44 Spoofing.node[4].wlan[0].mac.dcf frameSequenceActive:vector ETV
attr autoWarmupFilter false
attr interpolationmode sample-hold
attr recordingmode vector
attr source warmup(count(frameSequenceStarted)-count(frameSequenceFinished))
attr title "frame sequence active"
vector 45 Spoofing.node[4].wlan[0].mac.dcf.channelAccess.inProgressFrames queueLength:vector ETV
attr autoWarmupFilter false
attr interpolationmode sample-hold
attr recordingmode vector
attr source "warmup(count(packetEnqueued) - count(packetDequeued))"
attr title "queue length"
vector 46 Spoofing.node[4].wlan[0].mac.dcf.channelAccess.contention backoffActive:vector ETV
attr autoWarmupFilter false
attr interpolationmode sample-hold
attr recordingmode vector
attr source warmup(count(backoffStarted)-count(backoffStopped))
attr title "backoff active"
vector 47 Spoofing.node[4].udp passedUpPk:vector(count) ETV
attr interpolationmode none
attr recordingmode vector(count)
attr source packetSentToUpper
attr title "packets passed up, count"
vector 48 Spoofing.node[4].udp droppedPkWrongPort:vector(count) ETV
attr interpolationmode none
attr recordingmode vector(count)
attr source packetDropReasonIsNoPortFound(packetDropped)
attr title "packets dropped (wrong port), count"
vector 49 Spoofing.node[4].udp droppedPkBadChecksum:vector(count) ETV
attr interpolationmode none
attr recordingmode vector(count)
attr source packetDropReasonIsIncorrectlyReceived(packetDropped)
attr title "packets dropped (checksum error), count"
vector 50 Spoofing.node[4].wlan[0].radio radioMode:vector ETV
attr interpolationmode sample-hold
attr recordingmode vector
attr source radioModeChanged
attr title "Radio mode"
vector 51 Spoofing.node[4].wlan[0].radio radioChannel:vector ETV
attr interpolationmode sample-hold
attr recordingmode vector
attr source radioChannelChanged
attr title "Radio channel"
vector 52 Spoofing.node[4].wlan[0].radio receptionState:vector ETV
attr interpolationmode sample-hold
attr recordingmode vector
attr source receptionStateChanged
attr title "Radio reception state"
vector 53 Spoofing.node[4].wlan[0].mac.dcf.channelAccess.contention stateChanged:vector ETV
attr enum IDLE,DEFER,IFS_AND_BACKOFF
attr interpolationmode none
attr recordingmode vector
attr title "contention state changed"
attr type enum
vector 54 Spoofing.node[4].wlan[0].mac.dcf.recoveryProcedure contentionWindowChanged:vector ETV
attr interpolationmode sample-hold
attr recordingmode vector
attr title "contention window"
vector 55 Spoofing.node[0].app[0] packetSent:vector(packetBytes) ETV
attr interpolationmode none
attr recordingmode vector(packetBytes)
attr source packetSent
attr title "packets sent, packetBytes"
vector 56 Spoofing.node[0].udp packetSent:vector(packetBytes) ETV
attr interpolationmode none
attr recordingmode vector(packetBytes)
attr source packetSent
attr title "packets sent, packetBytes"
vector 57 Spoofing.node[0].lo[0].lo rcvdPkFromHl:vector(packetBytes) ETV
attr interpolationmode none
attr recordingmode vector(packetBytes)
attr source packetReceivedFromUpper
attr title "packets received from higher layer, packetBytes"
vector 58 Spoofing.node[0].lo[0].lo passedUpPk:vector(packetBytes) ETV
attr interpolationmode none
attr recordingmode vector(packetBytes)
attr source packetSentToUpper
attr title "packets passed to higher layer, packetBytes"
vector 59 Spoofing.node[0].wlan[0].mac packetReceivedFromUpper:vector(packetBytes) ETV
attr interpolationmode none
attr recordingmode vector(packetBytes)
attr title "packets received from upper layer, packetBytes"
vector 60 Spoofing.node[0].wlan[0].mac.dcf.channelAccess.pendingQueue incomingPacketLengths:vector ETV
attr interpolationmode none
attr recordingmode vector
attr source packetLength(packetPushStarted)
attr title "incoming packet lengths"
attr unit b
vector 61 Spoofing.node[0].wlan[0].mac.dcf.channelAccess.pendingQueue incomingDataRate:vector ETV
attr interpolationmode linear
attr recordingmode vector
attr source throughput(packetPushStarted)
attr title "incoming datarate"
attr unit bps
vector 62 Spoofing.node[0].wlan[0].mac.dcf.channelAccess.pendingQueue queueLength:vector ETV
attr autoWarmupFilter false
attr interpolationmode sample-hold
attr recordingmode vector
attr source "warmup(atomic(constant0(packetPushEnded) + count(packetPushStarted) - count(packetPulled) - count(packetRemoved) - count(packetDropped)))"
attr title "queue length"
attr unit pk
vector 63 Spoofing.node[0].wlan[0].mac.dcf.channelAccess.pendingQueue queueBitLength:vector ETV
attr autoWarmupFilter false
attr interpolationmode sample-hold
attr recordingmode vector
attr source "warmup(atomic(constant0(packetPushEnded) + sum(packetLength(packetPushStarted)) - sum(packetLength(packetPulled)) - sum(packetLength(packetRemoved)) - sum(packetLength(packetDropped))))"
attr title "queue bit length"
attr unit b
vector 64 Spoofing.node[0].wlan[0].mac.dcf.channelAccess.contention backoffPeriodGenerated:vector ETV
attr interpolationmode none
attr recordingmode vector
attr title "backoff periods"
vector 65 Spoofing.node[0].udp packetReceived:vector(packetBytes) ETV
attr interpolationmode none
attr recordingmode vector(packetBytes)
attr source packetReceived
attr title "packets received, packetBytes"
vector 66 Spoofing.node[0].app[0] packetReceived:vector(packetBytes) ETV
attr interpolationmode none
attr recordingmode vector(packetBytes)
attr source packetReceived
attr title "packets received, packetBytes"
vector 67 Spoofing.node[0].app[0] throughput:vector ETV
attr recordingmode vector
attr source throughput(packetReceived)
attr title throughput
attr unit bps
vector 68 Spoofing.node[0].app[0] rcvdPkLifetime:vector ETV
attr interpolationmode none
attr recordingmode vector
attr source dataAge(packetReceived)
attr title "received packet lifetime"
attr unit s
vector 69 Spoofing.node[0].wlan[0].mac.dcf.channelAccess.pendingQueue queueingTime:vector ETV
attr interpolationmode none
attr recordingmode vector
attr source queueingTime(packetPulled)
attr title "queueing times"
attr unit s
vector 70 Spoofing.node[0].wlan[0].mac.dcf.channelAccess.pendingQueue outgoingPacketLengths:vector ETV
attr interpolationmode none
attr recordingmode vector
attr source packetLength(packetPulled)
attr title "outgoing packet lengths"
attr unit b
vector 71 Spoofing.node[0].wlan[0].mac.dcf.channelAccess.pendingQueue outgoingDataRate:vector ETV
attr interpolationmode linear
attr recordingmode vector
attr source throughput(packetPulled)
attr title "outgoing datarate"
attr unit bps
vector 72 Spoofing.node[0].wlan[0].mac.dcf datarateSelected:vector ETV
attr interpolationmode none
attr recordingmode vector
attr title "datarates selected"
vector 73 Spoofing.node[0].wlan[0].mac packetSentToLower:vector(packetBytes) ETV
attr interpolationmode none
attr recordingmode vector(packetBytes)
attr title "packets sent to lower layer, packetBytes"
vector 74 Spoofing.node[0].wlan[0].radio transmissionState:vector ETV
attr interpolationmode sample-hold
attr recordingmode vector
attr source transmissionStateChanged
attr title "Radio transmission state"
vector 75 Spoofing.node[0].wlan[0].mac.dcf packetSentToPeer:vector(packetBytes) ETV
attr interpolationmode none
attr recordingmode vector(packetBytes)
attr title "packets sent, packetBytes"
vector 76 Spoofing.node[0].wlan[0].mac.dcf packetSentToPeerMulticast:vector(packetBytes) ETV
attr interpolationmode none
attr recordingmode vector(packetBytes)
attr source ieee80211Multicast(packetSentToPeer)
attr title "packets sent: multicast, packetBytes"
vector 77 Spoofing.node[0].wlan[0].mac.dcf packetSentToPeerWithoutRetry:vector(packetBytes) ETV
attr interpolationmode none
attr recordingmode vector(packetBytes)
attr source ieee80211NotRetry(packetSentToPeer)
attr title "packets sent: without retry, packetBytes"
vector 78 Spoofing.node[0].wlan[0].mac.dcf.channelAccess.inProgressFrames queueingTime:vector ETV
attr interpolationmode none
attr recordingmode vector
attr source queueingTime(packetDequeued)
attr title "queueing times"
vector 79 Spoofing.node[5].wlan[0].mac.dcf frameSequenceActive:vector ETV
attr autoWarmupFilter false
attr interpolationmode sample-hold
attr recordingmode vector
attr source warmup(count(frameSequenceStarted)-count(frameSequenceFinished))
attr title "frame sequence active"
vector 80 Spoofing.node[5].wlan[0].mac.dcf.channelAccess.inProgressFrames queueLength:vector ETV
attr autoWarmupFilter false
attr interpolationmode sample-hold
attr recordingmode vector
attr source "warmup(count(packetEnqueued) - count(packetDequeued))"
attr title "queue length"
vector 81 Spoofing.node[5].wlan[0].mac.dcf.channelAccess.contention backoffActive:vector ETV
attr autoWarmupFilter false
attr interpolationmode sample-hold
attr recordingmode vector
attr source warmup(count(backoffStarted)-count(backoffStopped))
attr title "backoff active"
vector 82 Spoofing.node[5].udp passedUpPk:vector(count) ETV
attr interpolationmode none
attr recordingmode vector(count)
attr source packetSentToUpper
attr title "packets passed up, count"
vector 83 Spoofing.node[5].udp droppedPkWrongPort:vector(count) ETV
attr interpolationmode none
attr recordingmode vector(count)
attr source packetDropReasonIsNoPortFound(packetDropped)
attr title "packets dropped (wrong port), count"
vector 84 Spoofing.node[5].udp droppedPkBadChecksum:vector(count) ETV
attr interpolationmode none
attr recordingmode vector(count)
attr source packetDropReasonIsIncorrectlyReceived(packetDropped)
attr title "packets dropped (checksum error), count"
vector 85 Spoofing.node[5].wlan[0].radio radioMode:vector ETV
attr interpolationmode sample-hold
attr recordingmode vector
attr source radioModeChanged
attr title "Radio mode"
vector 86 Spoofing.node[5].wlan[0].radio radioChannel:vector ETV
attr interpolationmode sample-hold
attr recordingmode vector
attr source radioChannelChanged
attr title "Radio channel"
vector 87 Spoofing.node[5].wlan[0].radio receptionState:vector ETV
attr interpolationmode sample-hold
attr recordingmode vector
attr source receptionStateChanged
attr title "Radio reception state"
vector 88 Spoofing.node[5].wlan[0].mac.dcf.channelAccess.contention stateChanged:vector ETV
attr enum IDLE,DEFER,IFS_AND_BACKOFF
attr interpolationmode none
attr recordingmode vector
attr title "contention state changed"
attr type enum
vector 89 Spoofing.node[5].wlan[0].mac.dcf.recoveryProcedure contentionWindowChanged:vector ETV
attr interpolationmode sample-hold
attr recordingmode vector
attr title "contention window"
vector 90 Spoofing.node[6].wlan[0].mac.dcf frameSequenceActive:vector ETV
attr autoWarmupFilter false
attr interpolationmode sample-hold
attr recordingmode vector
attr source warmup(count(frameSequenceStarted)-count(frameSequenceFinished))
attr title "frame sequence active"
vector 91 Spoofing.node[6].wlan[0].mac.dcf.channelAccess.inProgressFrames queueLength:vector ETV
attr autoWarmupFilter false
attr interpolationmode sample-hold
attr recordingmode vector
attr source "warmup(count(packetEnqueued) - count(packetDequeued))"
attr title "queue length"
vector 92 Spoofing.node[6].wlan[0].mac.dcf.channelAccess.contention backoffActive:vector ETV
attr autoWarmupFilter false
attr interpolationmode sample-hold
attr recordingmode vector
attr source warmup(count(backoffStarted)-count(backoffStopped))
attr title "backoff active"
vector 93 Spoofing.node[6].udp passedUpPk:vector(count) ETV
attr interpolationmode none
attr recordingmode vector(count)
attr source packetSentToUpper
attr title "packets passed up, count"
vector 94 Spoofing.node[6].udp droppedPkWrongPort:vector(count) ETV
attr interpolationmode none
attr recordingmode vector(count)
attr source packetDropReasonIsNoPortFound(packetDropped)
attr title "packets dropped (wrong port), count"
vector 95 Spoofing.node[6].udp droppedPkBadChecksum:vector(count) ETV
attr interpolationmode none
attr recordingmode vector(count)
attr source packetDropReasonIsIncorrectlyReceived(packetDropped)
attr title "packets dropped (checksum error), count"
vector 96 Spoofing.node[6].wlan[0].radio radioMode:vector ETV
attr interpolationmode sample-hold
attr recordingmode vector
attr source radioModeChanged
attr title "Radio mode"
vector 97 Spoofing.node[6].wlan[0].radio radioChannel:vector ETV
attr interpolationmode sample-hold
attr recordingmode vector
attr source radioChannelChanged
attr title "Radio channel"
vector 98 Spoofing.node[6].wlan[0].radio receptionState:vector ETV
attr interpolationmode sample-hold
attr recordingmode vector
attr source receptionStateChanged
attr title "Radio reception state"
vector 99 Spoofing.node[6].wlan[0].mac.dcf.channelAccess.contention stateChanged:vector ETV
attr enum IDLE,DEFER,IFS_AND_BACKOFF
attr interpolationmode none
attr recordingmode vector
attr title "contention state changed"
attr type enum
vector 100 Spoofing.node[6].wlan[0].mac.dcf.recoveryProcedure contentionWindowChanged:vector ETV
attr interpolationmode sample-hold
attr recordingmode vector
attr title "contention window"
vector 101 Spoofing.node[7].wlan[0].mac.dcf frameSequenceActive:vector ETV
attr autoWarmupFilter false
attr interpolationmode sample-hold
attr recordingmode vector
attr source warmup(count(frameSequenceStarted)-count(frameSequenceFinished))
attr title "frame sequence active"
vector 102 Spoofing.node[7].wlan[0].mac.dcf.channelAccess.inProgressFrames queueLength:vector ETV
attr autoWarmupFilter false
attr interpolationmode sample-hold
attr recordingmode vector
attr source "warmup(count(packetEnqueued) - count(packetDequeued))"
attr title "queue length"
vector 103 Spoofing.node[7].wlan[0].mac.dcf.channelAccess.contention backoffActive:vector ETV
attr autoWarmupFilter false
attr interpolationmode sample-hold
attr recordingmode vector
attr source warmup(count(backoffStarted)-count(backoffStopped))
attr title "backoff active"
vector 104 Spoofing.node[7].udp passedUpPk:vector(count) ETV
attr interpolationmode none
attr recordingmode vector(count)
attr source packetSentToUpper
attr title "packets passed up, count"
vector 105 Spoofing.node[7].udp droppedPkWrongPort:vector(count) ETV
attr interpolationmode none
attr recordingmode vector(count)
attr source packetDropReasonIsNoPortFound(packetDropped)
attr title "packets dropped (wrong port), count"
vector 106 Spoofing.node[7].udp droppedPkBadChecksum:vector(count) ETV
attr interpolationmode none
attr recordingmode vector(count)
attr source packetDropReasonIsIncorrectlyReceived(packetDropped)
attr title "packets dropped (checksum error), count"
vector 107 Spoofing.node[7].wlan[0].radio radioMode:vector ETV
attr interpolationmode sample-hold
attr recordingmode vector
attr source radioModeChanged
attr title "Radio mode"
vector 108 Spoofing.node[7].wlan[0].radio radioChannel:vector ETV
attr interpolationmode sample-hold
attr recordingmode vector
attr source radioChannelChanged
attr title "Radio channel"
vector 109 Spoofing.node[7].wlan[0].radio receptionState:vector ETV
attr interpolationmode sample-hold
attr recordingmode vector
attr source receptionStateChanged
attr title "Radio reception state"
vector 110 Spoofing.node[7].wlan[0].mac.dcf.channelAccess.contention stateChanged:vector ETV
attr enum IDLE,DEFER,IFS_AND_BACKOFF
attr interpolationmode none
attr recordingmode vector
attr title "contention state changed"
attr type enum
vector 111 Spoofing.node[7].wlan[0].mac.dcf.recoveryProcedure contentionWindowChanged:vector ETV
attr interpolationmode sample-hold
attr recordingmode vector
attr title "contention window"
vector 112 Spoofing.node[8].wlan[0].mac.dcf frameSequenceActive:vector ETV
attr autoWarmupFilter false
attr interpolationmode sample-hold
attr recordingmode vector
attr source warmup(count(frameSequenceStarted)-count(frameSequenceFinished))
attr title "frame sequence active"
vector 113 Spoofing.node[8].wlan[0].mac.dcf.channelAccess.inProgressFrames queueLength:vector ETV
attr autoWarmupFilter false
attr interpolationmode sample-hold
attr recordingmode vector
attr source "warmup(count(packetEnqueued) - count(packetDequeued))"
attr title "queue length"
vector 114 Spoofing.node[8].wlan[0].mac.dcf.channelAccess.contention backoffActive:vector ETV
attr autoWarmupFilter false
attr interpolationmode sample-hold
attr recordingmode vector
attr source warmup(count(backoffStarted)-count(backoffStopped))
attr title "backoff active"
vector 115 Spoofing.node[8].udp passedUpPk:vector(count) ETV
attr interpolationmode none
attr recordingmode vector(count)
attr source packetSentToUpper
attr title "packets passed up, count"
vector 116 Spoofing.node[8].udp droppedPkWrongPort:vector(count) ETV
attr interpolationmode none
attr recordingmode vector(count)
attr source packetDropReasonIsNoPortFound(packetDropped)
attr title "packets dropped (wrong port), count"
vector 117 Spoofing.node[8].udp droppedPkBadChecksum:vector(count) ETV
attr interpolationmode none
attr recordingmode vector(count)
attr source packetDropReasonIsIncorrectlyReceived(packetDropped)
attr title "packets dropped (checksum error), count"
vector 118 Spoofing.node[8].wlan[0].radio radioMode:vector ETV
attr interpolationmode sample-hold
attr recordingmode vector
attr source radioModeChanged
attr title "Radio mode"
vector 119 Spoofing.node[8].wlan[0].radio radioChannel:vector ETV
attr interpolationmode sample-hold
attr recordingmode vector
attr source radioChannelChanged
attr title "Radio channel"
vector 120 Spoofing.node[8].wlan[0].radio receptionState:vector ETV
attr interpolationmode sample-hold
attr recordingmode vector
attr source receptionStateChanged
attr title "Radio reception state"
vector 121 Spoofing.node[8].wlan[0].mac.dcf.channelAccess.contention stateChanged:vector ETV
attr enum IDLE,DEFER,IFS_AND_BACKOFF
attr interpolationmode none
attr recordingmode vector
attr title "contention state changed"
attr type enum
vector 122 Spoofing.node[8].wlan[0].mac.dcf.recoveryProcedure contentionWindowChanged:vector ETV
attr interpolationmode sample-hold
attr recordingmode vector
attr title "contention window"
vector 123 Spoofing.node[9].wlan[0].mac.dcf frameSequenceActive:vector ETV
attr autoWarmupFilter false
attr interpolationmode sample-hold
attr recordingmode vector
attr source warmup(count(frameSequenceStarted)-count(frameSequenceFinished))
attr title "frame sequence active"
vector 124 Spoofing.node[9].wlan[0].mac.dcf.channelAccess.inProgressFrames queueLength:vector ETV
attr autoWarmupFilter false
attr interpolationmode sample-hold
attr recordingmode vector
attr source "warmup(count(packetEnqueued) - count(packetDequeued))"
attr title "queue length"
vector 125 Spoofing.node[9].wlan[0].mac.dcf.channelAccess.contention backoffActive:vector ETV
attr autoWarmupFilter false
attr interpolationmode sample-hold
attr recordingmode vector
attr source warmup(count(backoffStarted)-count(backoffStopped))
attr title "backoff active"
vector 126 Spoofing.node[9].udp passedUpPk:vector(count) ETV
attr interpolationmode none
attr recordingmode vector(count)
attr source packetSentToUpper
attr title "packets passed up, count"
vector 127 Spoofing.node[9].udp droppedPkWrongPort:vector(count) ETV
attr interpolationmode none
attr recordingmode vector(count)
attr source packetDropReasonIsNoPortFound(packetDropped)
attr title "packets dropped (wrong port), count"
vector 128 Spoofing.node[9].udp droppedPkBadChecksum:vector(count) ETV
attr interpolationmode none
attr recordingmode vector(count)
attr source packetDropReasonIsIncorrectlyReceived(packetDropped)
attr title "packets dropped (checksum error), count"
vector 129 Spoofing.node[9].wlan[0].radio radioMode:vector ETV
attr interpolationmode sample-hold
attr recordingmode vector
attr source radioModeChanged
attr title "Radio mode"
vector 130 Spoofing.node[9].wlan[0].radio radioChannel:vector ETV
attr interpolationmode sample-hold
attr recordingmode vector
attr source radioChannelChanged
attr title "Radio channel"
vector 131 Spoofing.node[9].wlan[0].radio receptionState:vector ETV
attr interpolationmode sample-hold
attr recordingmode vector
attr source receptionStateChanged
attr title "Radio reception state"
vector 132 Spoofing.node[9].wlan[0].mac.dcf.channelAccess.contention stateChanged:vector ETV
attr enum IDLE,DEFER,IFS_AND_BACKOFF
attr interpolationmode none
attr recordingmode vector
attr title "contention state changed"
attr type enum
vector 133 Spoofing.node[9].wlan[0].mac.dcf.recoveryProcedure contentionWindowChanged:vector ETV
attr interpolationmode sample-hold
attr recordingmode vector
attr title "contention window"
vector 134 Spoofing.node[10].wlan[0].mac.dcf frameSequenceActive:vector ETV
attr autoWarmupFilter false
attr interpolationmode sample-hold
attr recordingmode vector
attr source warmup(count(frameSequenceStarted)-count(frameSequenceFinished))
attr title "frame sequence active"
vector 135 Spoofing.node[10].wlan[0].mac.dcf.channelAccess.inProgressFrames queueLength:vector ETV
attr autoWarmupFilter false
attr interpolationmode sample-hold
attr recordingmode vector
attr source "warmup(count(packetEnqueued) - count(packetDequeued))"
attr title "queue length"
vector 136 Spoofing.node[10].wlan[0].mac.dcf.channelAccess.contention backoffActive:vector ETV
attr autoWarmupFilter false
attr interpolationmode sample-hold
attr recordingmode vector
attr source warmup(count(backoffStarted)-count(backoffStopped))
attr title "backoff active"
vector 137 Spoofing.node[10].udp passedUpPk:vector(count) ETV
attr interpolationmode none
attr recordingmode vector(count)
attr source packetSentToUpper
attr title "packets passed up, count"
vector 138 Spoofing.node[10].udp droppedPkWrongPort:vector(count) ETV
attr interpolationmode none
attr recordingmode vector(count)
attr source packetDropReasonIsNoPortFound(packetDropped)
attr title "packets dropped (wrong port), count"
vector 139 Spoofing.node[10].udp droppedPkBadChecksum:vector(count) ETV
attr interpolationmode none
attr recordingmode vector(count)
attr source packetDropReasonIsIncorrectlyReceived(packetDropped)
attr title "packets dropped (checksum error), count"
vector 140 Spoofing.node[10].wlan[0].radio radioMode:vector ETV
attr interpolationmode sample-hold
attr recordingmode vector
attr source radioModeChanged
attr title "Radio mode"
vector 141 Spoofing.node[10].wlan[0].radio radioChannel:vector ETV
attr interpolationmode sample-hold
attr recordingmode vector
attr source radioChannelChanged
attr title "Radio channel"
vector 142 Spoofing.node[10].wlan[0].radio receptionState:vector ETV
attr interpolationmode sample-hold
attr recordingmode vector
attr source receptionStateChanged
attr title "Radio reception state"
vector 143 Spoofing.node[10].wlan[0].mac.dcf.channelAccess.contention stateChanged:vector ETV
attr enum IDLE,DEFER,IFS_AND_BACKOFF
attr interpolationmode none
attr recordingmode vector
attr title "contention state changed"
attr type enum
vector 144 Spoofing.node[10].wlan[0].mac.dcf.recoveryProcedure contentionWindowChanged:vector ETV
attr interpolationmode sample-hold
attr recordingmode vector
attr title "contention window"
vector 145 Spoofing.node[11].wlan[0].mac.dcf frameSequenceActive:vector ETV
attr autoWarmupFilter false
attr interpolationmode sample-hold
attr recordingmode vector
attr source warmup(count(frameSequenceStarted)-count(frameSequenceFinished))
attr title "frame sequence active"
vector 146 Spoofing.node[11].wlan[0].mac.dcf.channelAccess.inProgressFrames queueLength:vector ETV
attr autoWarmupFilter false
attr interpolationmode sample-hold
attr recordingmode vector
attr source "warmup(count(packetEnqueued) - count(packetDequeued))"
attr title "queue length"
vector 147 Spoofing.node[11].wlan[0].mac.dcf.channelAccess.contention backoffActive:vector ETV
attr autoWarmupFilter false
attr interpolationmode sample-hold
attr recordingmode vector
attr source warmup(count(backoffStarted)-count(backoffStopped))
attr title "backoff active"
vector 148 Spoofing.node[11].udp passedUpPk:vector(count) ETV
attr interpolationmode none
attr recordingmode vector(count)
attr source packetSentToUpper
attr title "packets passed up, count"
vector 149 Spoofing.node[11].udp droppedPkWrongPort:vector(count) ETV
attr interpolationmode none
attr recordingmode vector(count)
attr source packetDropReasonIsNoPortFound(packetDropped)
attr title "packets dropped (wrong port), count"
vector 150 Spoofing.node[11].udp droppedPkBadChecksum:vector(count) ETV
attr interpolationmode none
attr recordingmode vector(count)
attr source packetDropReasonIsIncorrectlyReceived(packetDropped)
attr title "packets dropped (checksum error), count"
vector 151 Spoofing.node[11].wlan[0].radio radioMode:vector ETV
attr interpolationmode sample-hold
attr recordingmode vector
attr source radioModeChanged
attr title "Radio mode"
vector 152 Spoofing.node[11].wlan[0].radio radioChannel:vector ETV
attr interpolationmode sample-hold
attr recordingmode vector
attr source radioChannelChanged
attr title "Radio channel"
vector 153 Spoofing.node[11].wlan[0].radio receptionState:vector ETV
attr interpolationmode sample-hold
attr recordingmode vector
attr source receptionStateChanged
attr title "Radio reception state"
vector 154 Spoofing.node[11].wlan[0].mac.dcf.channelAccess.contention stateChanged:vector ETV
attr enum IDLE,DEFER,IFS_AND_BACKOFF
attr interpolationmode none
attr recordingmode vector
attr title "contention state changed"
attr type enum
vector 155 Spoofing.node[11].wlan[0].mac.dcf.recoveryProcedure contentionWindowChanged:vector ETV
attr interpolationmode sample-hold
attr recordingmode vector
attr title "contention window"
vector 156 Spoofing.node[12].wlan[0].mac.dcf frameSequenceActive:vector ETV
attr autoWarmupFilter false
attr interpolationmode sample-hold
attr recordingmode vector
attr source warmup(count(frameSequenceStarted)-count(frameSequenceFinished))
attr title "frame sequence active"
vector 157 Spoofing.node[12].wlan[0].mac.dcf.channelAccess.inProgressFrames queueLength:vector ETV
attr autoWarmupFilter false
attr interpolationmode sample-hold
attr recordingmode vector
attr source "warmup(count(packetEnqueued) - count(packetDequeued))"
attr title "queue length"
vector 158 Spoofing.node[12].wlan[0].mac.dcf.channelAccess.contention backoffActive:vector ETV
attr autoWarmupFilter false
attr interpolationmode sample-hold
attr recordingmode vector
attr source warmup(count(backoffStarted)-count(backoffStopped))
attr title "backoff active"
vector 159 Spoofing.node[12].udp passedUpPk:vector(count) ETV
attr interpolationmode none
attr recordingmode vector(count)
attr source packetSentToUpper
attr title "packets passed up, count"
vector 160 Spoofing.node[12].udp droppedPkWrongPort:vector(count) ETV
attr interpolationmode none
attr recordingmode vector(count)
attr source packetDropReasonIsNoPortFound(packetDropped)
attr title "packets dropped (wrong port), count"
vector 161 Spoofing.node[12].udp droppedPkBadChecksum:vector(count) ETV
attr interpolationmode none
attr recordingmode vector(count)
attr source packetDropReasonIsIncorrectlyReceived(packetDropped)
attr title "packets dropped (checksum error), count"
vector 162 Spoofing.node[12].wlan[0].radio radioMode:vector ETV
attr interpolationmode sample-hold
attr recordingmode vector
attr source radioModeChanged
attr title "Radio mode"
vector 163 Spoofing.node[12].wlan[0].radio radioChannel:vector ETV
attr interpolationmode sample-hold
attr recordingmode vector
attr source radioChannelChanged
attr title "Radio channel"
vector 164 Spoofing.node[12].wlan[0].radio receptionState:vector ETV
attr interpolationmode sample-hold
attr recordingmode vector
attr source receptionStateChanged
attr title "Radio reception state"
vector 165 Spoofing.node[12].wlan[0].mac.dcf.channelAccess.contention stateChanged:vector ETV
attr enum IDLE,DEFER,IFS_AND_BACKOFF
attr interpolationmode none
attr recordingmode vector
attr title "contention state changed"
attr type enum
vector 166 Spoofing.node[12].wlan[0].mac.dcf.recoveryProcedure contentionWindowChanged:vector ETV
attr interpolationmode sample-hold
attr recordingmode vector
attr title "contention window"
vector 167 Spoofing.node[1].wlan[0].mac packetReceivedFromLower:vector(packetBytes) ETV
attr interpolationmode none
attr recordingmode vector(packetBytes)
attr title "packets received from lower layer, packetBytes"
vector 168 Spoofing.node[1].wlan[0].mac.dcf packetReceivedFromPeer:vector(packetBytes) ETV
attr interpolationmode none
attr recordingmode vector(packetBytes)
attr title "packets received, packetBytes"
vector 169 Spoofing.node[1].wlan[0].mac.dcf packetReceivedFromPeerMulticast:vector(packetBytes) ETV
attr interpolationmode none
attr recordingmode vector(packetBytes)
attr source ieee80211Multicast(packetReceivedFromPeer)
attr title "packets received: multicast, packetBytes"
vector 170 Spoofing.node[1].wlan[0].mac.dcf packetReceivedFromPeerWithoutRetry:vector(packetBytes) ETV
attr interpolationmode none
attr recordingmode vector(packetBytes)
attr source ieee80211NotRetry(packetReceivedFromPeer)
attr title "packets received: without retry, packetBytes"
vector 171 Spoofing.node[1].wlan[0].mac packetSentToUpper:vector(packetBytes) ETV
attr interpolationmode none
attr recordingmode vector(packetBytes)
attr title "packets sent to upper layer, packetBytes"
vector 172 Spoofing.node[1].udp packetReceived:vector(packetBytes) ETV
attr interpolationmode none
attr recordingmode vector(packetBytes)
attr source packetReceived
attr title "packets received, packetBytes"
vector 173 Spoofing.node[1].app[0] packetReceived:vector(packetBytes) ETV
attr interpolationmode none
attr recordingmode vector(packetBytes)
attr source packetReceived
attr title "packets received, packetBytes"
vector 174 Spoofing.node[1].app[0] throughput:vector ETV
attr recordingmode vector
attr source throughput(packetReceived)
attr title throughput
attr unit bps
vector 175 Spoofing.node[1].app[0] rcvdPkLifetime:vector ETV
attr interpolationmode none
attr recordingmode vector
attr source dataAge(packetReceived)
attr title "received packet lifetime"
attr unit s
vector 176 Spoofing.node[1].app[0] packetSent:vector(packetBytes) ETV
attr interpolationmode none
attr recordingmode vector(packetBytes)
attr source packetSent
attr title "packets sent, packetBytes"
vector 177 Spoofing.node[1].udp packetSent:vector(packetBytes) ETV
attr interpolationmode none
attr recordingmode vector(packetBytes)
attr source packetSent
attr title "packets sent, packetBytes"
vector 178 Spoofing.node[1].lo[0].lo rcvdPkFromHl:vector(packetBytes) ETV
attr interpolationmode none
attr recordingmode vector(packetBytes)
attr source packetReceivedFromUpper
attr title "packets received from higher layer, packetBytes"
vector 179 Spoofing.node[1].lo[0].lo passedUpPk:vector(packetBytes) ETV
attr interpolationmode none
attr recordingmode vector(packetBytes)
attr source packetSentToUpper
attr title "packets passed to higher layer, packetBytes"
vector 180 Spoofing.node[1].wlan[0].mac packetReceivedFromUpper:vector(packetBytes) ETV
attr interpolationmode none
attr recordingmode vector(packetBytes)
attr title "packets received from upper layer, packetBytes"
vector 181 Spoofing.node[1].wlan[0].mac.dcf.channelAccess.pendingQueue incomingPacketLengths:vector ETV
attr interpolationmode none
attr recordingmode vector
attr source packetLength(packetPushStarted)
attr title "incoming packet lengths"
attr unit b
vector 182 Spoofing.node[1].wlan[0].mac.dcf.channelAccess.pendingQueue incomingDataRate:vector ETV
attr interpolationmode linear
attr recordingmode vector
attr source throughput(packetPushStarted)
attr title "incoming datarate"
attr unit bps
vector 183 Spoofing.node[1].wlan[0].mac.dcf.channelAccess.pendingQueue queueLength:vector ETV
attr autoWarmupFilter false
attr interpolationmode sample-hold
attr recordingmode vector
attr source "warmup(atomic(constant0(packetPushEnded) + count(packetPushStarted) - count(packetPulled) - count(packetRemoved) - count(packetDropped)))"
attr title "queue length"
attr unit pk
vector 184 Spoofing.node[1].wlan[0].mac.dcf.channelAccess.pendingQueue queueBitLength:vector ETV
attr autoWarmupFilter false
attr interpolationmode sample-hold
attr recordingmode vector
attr source "warmup(atomic(constant0(packetPushEnded) + sum(packetLength(packetPushStarted)) - sum(packetLength(packetPulled)) - sum(packetLength(packetRemoved)) - sum(packetLength(packetDropped))))"
attr title "queue bit length"
attr unit b
vector 185 Spoofing.node[1].wlan[0].mac.dcf.channelAccess.contention backoffPeriodGenerated:vector ETV
attr interpolationmode none
attr recordingmode vector
attr title "backoff periods"
vector 186 Spoofing.node[1].wlan[0].mac.dcf.channelAccess.pendingQueue queueingTime:vector ETV
attr interpolationmode none
attr recordingmode vector
attr source queueingTime(packetPulled)
attr title "queueing times"
attr unit s
vector 187 Spoofing.node[1].wlan[0].mac.dcf.channelAccess.pendingQueue outgoingPacketLengths:vector ETV
attr interpolationmode none
attr recordingmode vector
attr source packetLength(packetPulled)
attr title "outgoing packet lengths"
attr unit b
vector 188 Spoofing.node[1].wlan[0].mac.dcf.channelAccess.pendingQueue outgoingDataRate:vector ETV
attr interpolationmode linear
attr recordingmode vector
attr source throughput(packetPulled)
attr title "outgoing datarate"
attr unit bps
vector 189 Spoofing.node[1].wlan[0].mac.dcf datarateSelected:vector ETV
attr interpolationmode none
attr recordingmode vector
attr title "datarates selected"
vector 190 Spoofing.node[1].wlan[0].mac packetSentToLower:vector(packetBytes) ETV
attr interpolationmode none
attr recordingmode vector(packetBytes)
attr title "packets sent to lower layer, packetBytes"
vector 191 Spoofing.node[1].wlan[0].radio transmissionState:vector ETV
attr interpolationmode sample-hold
attr recordingmode vector
attr source transmissionStateChanged
attr title "Radio transmission state"
vector 192 Spoofing.node[1].wlan[0].mac.dcf packetSentToPeer:vector(packetBytes) ETV
attr interpolationmode none
attr recordingmode vector(packetBytes)
attr title "packets sent, packetBytes"
vector 193 Spoofing.node[1].wlan[0].mac.dcf packetSentToPeerMulticast:vector(packetBytes) ETV
attr interpolationmode none
attr recordingmode vector(packetBytes)
attr source ieee80211Multicast(packetSentToPeer)
attr title "packets sent: multicast, packetBytes"
vector 194 Spoofing.node[1].wlan[0].mac.dcf packetSentToPeerWithoutRetry:vector(packetBytes) ETV
attr interpolationmode none
attr recordingmode vector(packetBytes)
attr source ieee80211NotRetry(packetSentToPeer)
attr title "packets sent: without retry, packetBytes"
vector 195 Spoofing.node[1].wlan[0].mac.dcf.channelAccess.inProgressFrames queueingTime:vector ETV
attr interpolationmode none
attr recordingmode vector
attr source queueingTime(packetDequeued)
attr title "queueing times"
vector 196 Spoofing.node[2].wlan[0].mac packetReceivedFromLower:vector(packetBytes) ETV
attr interpolationmode none
attr recordingmode vector(packetBytes)
attr title "packets received from lower layer, packetBytes"
vector 197 Spoofing.node[2].wlan[0].mac.dcf packetReceivedFromPeer:vector(packetBytes) ETV
attr interpolationmode none
attr recordingmode vector(packetBytes)
attr title "packets received, packetBytes"
vector 198 Spoofing.node[2].wlan[0].mac.dcf packetReceivedFromPeerMulticast:vector(packetBytes) ETV
attr interpolationmode none
attr recordingmode vector(packetBytes)
attr source ieee80211Multicast(packetReceivedFromPeer)
attr title "packets received: multicast, packetBytes"
vector 199 Spoofing.node[2].wlan[0].mac.dcf packetReceivedFromPeerWithoutRetry:vector(packetBytes) ETV
attr interpolationmode none
attr recordingmode vector(packetBytes)
attr source ieee80211NotRetry(packetReceivedFromPeer)
attr title "packets received: without retry, packetBytes"
vector 200 Spoofing.node[2].wlan[0].mac packetSentToUpper:vector(packetBytes) ETV
attr interpolationmode none
attr recordingmode vector(packetBytes)
attr title "packets sent to upper layer, packetBytes"
vector 201 Spoofing.node[2].udp packetReceived:vector(packetBytes) ETV
attr interpolationmode none
attr recordingmode vector(packetBytes)
attr source packetReceived
attr title "packets received, packetBytes"
vector 202 Spoofing.node[2].app[0] packetReceived:vector(packetBytes) ETV
attr interpolationmode none
attr recordingmode vector(packetBytes)
attr source packetReceived
attr title "packets received, packetBytes"
vector 203 Spoofing.node[2].app[0] throughput:vector ETV
attr recordingmode vector
attr source throughput(packetReceived)
attr title throughput
attr unit bps
vector 204 Spoofing.node[2].app[0] rcvdPkLifetime:vector ETV
attr interpolationmode none
attr recordingmode vector
attr source dataAge(packetReceived)
attr title "received packet lifetime"
attr unit s
vector 205 Spoofing.node[2].app[0] packetSent:vector(packetBytes) ETV
attr interpolationmode none
attr recordingmode vector(packetBytes)
attr source packetSent
attr title "packets sent, packetBytes"
vector 206 Spoofing.node[2].udp packetSent:vector(packetBytes) ETV
attr interpolationmode none
attr recordingmode vector(packetBytes)
attr source packetSent
attr title "packets sent, packetBytes"
vector 207 Spoofing.node[2].lo[0].lo rcvdPkFromHl:vector(packetBytes) ETV
attr interpolationmode none
attr recordingmode vector(packetBytes)
attr source packetReceivedFromUpper
attr title "packets received from higher layer, packetBytes"
vector 208 Spoofing.node[2].lo[0].lo passedUpPk:vector(packetBytes) ETV
attr interpolationmode none
attr recordingmode vector(packetBytes)
attr source packetSentToUpper
attr title "packets passed to higher layer, packetBytes"
vector 209 Spoofing.node[2].wlan[0].mac packetReceivedFromUpper:vector(packetBytes) ETV
attr interpolationmode none
attr recordingmode vector(packetBytes)
attr title "packets received from upper layer, packetBytes"
vector 210 Spoofing.node[2].wlan[0].mac.dcf.channelAccess.pendingQueue incomingPacketLengths:vector ETV
attr interpolationmode none
attr recordingmode vector
attr source packetLength(packetPushStarted)
attr title "incoming packet lengths"
attr unit b
vector 211 Spoofing.node[2].wlan[0].mac.dcf.channelAccess.pendingQueue incomingDataRate:vector ETV
attr interpolationmode linear
attr recordingmode vector
attr source throughput(packetPushStarted)
attr title "incoming datarate"
attr unit bps
vector 212 Spoofing.node[2].wlan[0].mac.dcf.channelAccess.pendingQueue queueLength:vector ETV
attr autoWarmupFilter false
attr interpolationmode sample-hold
attr recordingmode vector
attr source "warmup(atomic(constant0(packetPushEnded) + count(packetPushStarted) - count(packetPulled) - count(packetRemoved) - count(packetDropped)))"
attr title "queue length"
attr unit pk
vector 213 Spoofing.node[2].wlan[0].mac.dcf.channelAccess.pendingQueue queueBitLength:vector ETV
attr autoWarmupFilter false
attr interpolationmode sample-hold
attr recordingmode vector
attr source "warmup(atomic(constant0(packetPushEnded) + sum(packetLength(packetPushStarted)) - sum(packetLength(packetPulled)) - sum(packetLength(packetRemoved)) - sum(packetLength(packetDropped))))"
attr title "queue bit length"
attr unit b
vector 214 Spoofing.node[2].wlan[0].mac.dcf.channelAccess.contention backoffPeriodGenerated:vector ETV
attr interpolationmode none
attr recordingmode vector
attr title "backoff periods"
vector 215 Spoofing.node[3].wlan[0].mac packetReceivedFromLower:vector(packetBytes) ETV
attr interpolationmode none
attr recordingmode vector(packetBytes)
attr title "packets received from lower layer, packetBytes"
vector 216 Spoofing.node[3].wlan[0].mac.dcf packetReceivedFromPeer:vector(packetBytes) ETV
attr interpolationmode none
attr recordingmode vector(packetBytes)
attr title "packets received, packetBytes"
vector 217 Spoofing.node[3].wlan[0].mac.dcf packetReceivedFromPeerMulticast:vector(packetBytes) ETV
attr interpolationmode none
attr recordingmode vector(packetBytes)
attr source ieee80211Multicast(packetReceivedFromPeer)
attr title "packets received: multicast, packetBytes"
vector 218 Spoofing.node[3].wlan[0].mac.dcf packetReceivedFromPeerWithoutRetry:vector(packetBytes) ETV
attr interpolationmode none
attr recordingmode vector(packetBytes)
attr source ieee80211NotRetry(packetReceivedFromPeer)
attr title "packets received: without retry, packetBytes"
vector 219 Spoofing.node[3].wlan[0].mac packetSentToUpper:vector(packetBytes) ETV
attr interpolationmode none
attr recordingmode vector(packetBytes)
attr title "packets sent to upper layer, packetBytes"
vector 220 Spoofing.node[3].udp packetReceived:vector(packetBytes) ETV
attr interpolationmode none
attr recordingmode vector(packetBytes)
attr source packetReceived
attr title "packets received, packetBytes"
vector 221 Spoofing.node[3].app[0] packetReceived:vector(packetBytes) ETV
attr interpolationmode none
attr recordingmode vector(packetBytes)
attr source packetReceived
attr title "packets received, packetBytes"
vector 222 Spoofing.node[3].app[0] throughput:vector ETV
attr recordingmode vector
attr source throughput(packetReceived)
attr title throughput
attr unit bps
vector 223 Spoofing.node[3].app[0] rcvdPkLifetime:vector ETV
attr interpolationmode none
attr recordingmode vector
attr source dataAge(packetReceived)
attr title "received packet lifetime"
attr unit s
vector 224 Spoofing.node[3].app[0] packetSent:vector(packetBytes) ETV
attr interpolationmode none
attr recordingmode vector(packetBytes)
attr source packetSent
attr title "packets sent, packetBytes"
vector 225 Spoofing.node[3].udp packetSent:vector(packetBytes) ETV
attr interpolationmode none
attr recordingmode vector(packetBytes)
attr source packetSent
attr title "packets sent, packetBytes"
vector 226 Spoofing.node[3].lo[0].lo rcvdPkFromHl:vector(packetBytes) ETV
attr interpolationmode none
attr recordingmode vector(packetBytes)
attr source packetReceivedFromUpper
attr title "packets received from higher layer, packetBytes"
vector 227 Spoofing.node[3].lo[0].lo passedUpPk:vector(packetBytes) ETV
attr interpolationmode none
attr recordingmode vector(packetBytes)
attr source packetSentToUpper
attr title "packets passed to higher layer, packetBytes"
vector 228 Spoofing.node[3].wlan[0].mac packetReceivedFromUpper:vector(packetBytes) ETV
attr interpolationmode none
attr recordingmode vector(packetBytes)
attr title "packets received from upper layer, packetBytes"
vector 229 Spoofing.node[3].wlan[0].mac.dcf.channelAccess.pendingQueue incomingPacketLengths:vector ETV
attr interpolationmode none
attr recordingmode vector
attr source packetLength(packetPushStarted)
attr title "incoming packet lengths"
attr unit b
vector 230 Spoofing.node[3].wlan[0].mac.dcf.channelAccess.pendingQueue incomingDataRate:vector ETV
attr interpolationmode linear
attr recordingmode vector
attr source throughput(packetPushStarted)
attr title "incoming datarate"
attr unit bps
vector 231 Spoofing.node[3].wlan[0].mac.dcf.channelAccess.pendingQueue queueLength:vector ETV
attr autoWarmupFilter false
attr interpolationmode sample-hold
attr recordingmode vector
attr source "warmup(atomic(constant0(packetPushEnded) + count(packetPushStarted) - count(packetPulled) - count(packetRemoved) - count(packetDropped)))"
attr title "queue length"
attr unit pk
vector 232 Spoofing.node[3].wlan[0].mac.dcf.channelAccess.pendingQueue queueBitLength:vector ETV
attr autoWarmupFilter false
attr interpolationmode sample-hold
attr recordingmode vector
attr source "warmup(atomic(constant0(packetPushEnded) + sum(packetLength(packetPushStarted)) - sum(packetLength(packetPulled)) - sum(packetLength(packetRemoved)) - sum(packetLength(packetDropped))))"
attr title "queue bit length"
attr unit b
vector 233 Spoofing.node[3].wlan[0].mac.dcf.channelAccess.contention backoffPeriodGenerated:vector ETV
attr interpolationmode none
attr recordingmode vector
attr title "backoff periods"
vector 234 Spoofing.node[0].wlan[0].mac packetReceivedFromLower:vector(packetBytes) ETV
attr interpolationmode none
attr recordingmode vector(packetBytes)
attr title "packets received from lower layer, packetBytes"
vector 235 Spoofing.node[0].wlan[0].mac.dcf packetReceivedFromPeer:vector(packetBytes) ETV
attr interpolationmode none
attr recordingmode vector(packetBytes)
attr title "packets received, packetBytes"
vector 236 Spoofing.node[0].wlan[0].mac.dcf packetReceivedFromPeerMulticast:vector(packetBytes) ETV
attr interpolationmode none
attr recordingmode vector(packetBytes)
attr source ieee80211Multicast(packetReceivedFromPeer)
attr title "packets received: multicast, packetBytes"
vector 237 Spoofing.node[0].wlan[0].mac.dcf packetReceivedFromPeerWithoutRetry:vector(packetBytes) ETV
attr interpolationmode none
attr recordingmode vector(packetBytes)
attr source ieee80211NotRetry(packetReceivedFromPeer)
attr title "packets received: without retry, packetBytes"
vector 238 Spoofing.node[0].wlan[0].mac packetSentToUpper:vector(packetBytes) ETV
attr interpolationmode none
attr recordingmode vector(packetBytes)
attr title "packets sent to upper layer, packetBytes"
vector 239 Spoofing.node[5].wlan[0].mac packetReceivedFromLower:vector(packetBytes) ETV
attr interpolationmode none
attr recordingmode vector(packetBytes)
attr title "packets received from lower layer, packetBytes"
vector 240 Spoofing.node[5].wlan[0].mac.dcf packetReceivedFromPeer:vector(packetBytes) ETV
attr interpolationmode none
attr recordingmode vector(packetBytes)
attr title "packets received, packetBytes"
vector 241 Spoofing.node[5].wlan[0].mac.dcf packetReceivedFromPeerMulticast:vector(packetBytes) ETV
attr interpolationmode none
attr recordingmode vector(packetBytes)
attr source ieee80211Multicast(packetReceivedFromPeer)
attr title "packets received: multicast, packetBytes"
vector 242 Spoofing.node[5].wlan[0].mac.dcf packetReceivedFromPeerWithoutRetry:vector(packetBytes) ETV
attr interpolationmode none
attr recordingmode vector(packetBytes)
attr source ieee80211NotRetry(packetReceivedFromPeer)
attr title "packets received: without retry, packetBytes"
vector 243 Spoofing.node[5].wlan[0].mac packetSentToUpper:vector(packetBytes) ETV
attr interpolationmode none
attr recordingmode vector(packetBytes)
attr title "packets sent to upper layer, packetBytes"
vector 244 Spoofing.node[5].udp packetReceived:vector(packetBytes) ETV
attr interpolationmode none
attr recordingmode vector(packetBytes)
attr source packetReceived
attr title "packets received, packetBytes"
vector 245 Spoofing.node[5].app[0] packetReceived:vector(packetBytes) ETV
attr interpolationmode none
attr recordingmode vector(packetBytes)
attr source packetReceived
attr title "packets received, packetBytes"
vector 246 Spoofing.node[5].app[0] throughput:vector ETV
attr recordingmode vector
attr source throughput(packetReceived)
attr title throughput
attr unit bps
vector 247 Spoofing.node[5].app[0] rcvdPkLifetime:vector ETV
attr interpolationmode none
attr recordingmode vector
attr source dataAge(packetReceived)
attr title "received packet lifetime"
attr unit s
vector 248 Spoofing.node[5].app[0] packetSent:vector(packetBytes) ETV
attr interpolationmode none
attr recordingmode vector(packetBytes)
attr source packetSent
attr title "packets sent, packetBytes"
vector 249 Spoofing.node[5].udp packetSent:vector(packetBytes) ETV
attr interpolationmode none
attr recordingmode vector(packetBytes)
attr source packetSent
attr title "packets sent, packetBytes"
vector 250 Spoofing.node[5].lo[0].lo rcvdPkFromHl:vector(packetBytes) ETV
attr interpolationmode none
attr recordingmode vector(packetBytes)
attr source packetReceivedFromUpper
attr title "packets received from higher layer, packetBytes"
vector 251 Spoofing.node[5].lo[0].lo passedUpPk:vector(packetBytes) ETV
attr interpolationmode none
attr recordingmode vector(packetBytes)
attr source packetSentToUpper
attr title "packets passed to higher layer, packetBytes"
vector 252 Spoofing.node[5].wlan[0].mac packetReceivedFromUpper:vector(packetBytes) ETV
attr interpolationmode none
attr recordingmode vector(packetBytes)
attr title "packets received from upper layer, packetBytes"
vector 253 Spoofing.node[5].wlan[0].mac.dcf.channelAccess.pendingQueue incomingPacketLengths:vector ETV
attr interpolationmode none
attr recordingmode vector
attr source packetLength(packetPushStarted)
attr title "incoming packet lengths"
attr unit b
vector 254 Spoofing.node[5].wlan[0].mac.dcf.channelAccess.pendingQueue incomingDataRate:vector ETV
attr interpolationmode linear
attr recordingmode vector
attr source throughput(packetPushStarted)
attr title "incoming datarate"
attr unit bps
vector 255 Spoofing.node[5].wlan[0].mac.dcf.channelAccess.pendingQueue queueLength:vector ETV
attr autoWarmupFilter false
attr interpolationmode sample-hold
attr recordingmode vector
attr source "warmup(atomic(constant0(packetPushEnded) + count(packetPushStarted) - count(packetPulled) - count(packetRemoved) - count(packetDropped)))"
attr title "queue length"
attr unit pk
vector 256 Spoofing.node[5].wlan[0].mac.dcf.channelAccess.pendingQueue queueBitLength:vector ETV
attr autoWarmupFilter false
attr interpolationmode sample-hold
attr recordingmode vector
attr source "warmup(atomic(constant0(packetPushEnded) + sum(packetLength(packetPushStarted)) - sum(packetLength(packetPulled)) - sum(packetLength(packetRemoved)) - sum(packetLength(packetDropped))))"
attr title "queue bit length"
attr unit b
vector 257 Spoofing.node[5].wlan[0].mac.dcf.channelAccess.contention backoffPeriodGenerated:vector ETV
attr interpolationmode none
attr recordingmode vector
attr title "backoff periods"
vector 258 Spoofing.node[2].wlan[0].mac.dcf.channelAccess.pendingQueue queueingTime:vector ETV
attr interpolationmode none
attr recordingmode vector
attr source queueingTime(packetPulled)
attr title "queueing times"
attr unit s
vector 259 Spoofing.node[2].wlan[0].mac.dcf.channelAccess.pendingQueue outgoingPacketLengths:vector ETV
attr interpolationmode none
attr recordingmode vector
attr source packetLength(packetPulled)
attr title "outgoing packet lengths"
attr unit b
vector 260 Spoofing.node[2].wlan[0].mac.dcf.channelAccess.pendingQueue outgoingDataRate:vector ETV
attr interpolationmode linear
attr recordingmode vector
attr source throughput(packetPulled)
attr title "outgoing datarate"
attr unit bps
vector 261 Spoofing.node[2].wlan[0].mac.dcf datarateSelected:vector ETV
attr interpolationmode none
attr recordingmode vector
attr title "datarates selected"
vector 262 Spoofing.node[2].wlan[0].mac packetSentToLower:vector(packetBytes) ETV
attr interpolationmode none
attr recordingmode vector(packetBytes)
attr title "packets sent to lower layer, packetBytes"
vector 263 Spoofing.node[2].wlan[0].radio transmissionState:vector ETV
attr interpolationmode sample-hold
attr recordingmode vector
attr source transmissionStateChanged
attr title "Radio transmission state"
vector 264 Spoofing.node[2].wlan[0].mac.dcf packetSentToPeer:vector(packetBytes) ETV
attr interpolationmode none
attr recordingmode vector(packetBytes)
attr title "packets sent, packetBytes"
vector 265 Spoofing.node[2].wlan[0].mac.dcf packetSentToPeerMulticast:vector(packetBytes) ETV
attr interpolationmode none
attr recordingmode vector(packetBytes)
attr source ieee80211Multicast(packetSentToPeer)
attr title "packets sent: multicast, packetBytes"
vector 266 Spoofing.node[2].wlan[0].mac.dcf packetSentToPeerWithoutRetry:vector(packetBytes) ETV
attr interpolationmode none
attr recordingmode vector(packetBytes)
attr source ieee80211NotRetry(packetSentToPeer)
attr title "packets sent: without retry, packetBytes"
vector 267 Spoofing.node[2].wlan[0].mac.dcf.channelAccess.inProgressFrames queueingTime:vector ETV
attr interpolationmode none
attr recordingmode vector
attr source queueingTime(packetDequeued)
attr title "queueing times"
vector 268 Spoofing.node[9].wlan[0].mac packetReceivedFromLower:vector(packetBytes) ETV
attr interpolationmode none
attr recordingmode vector(packetBytes)
attr title "packets received from lower layer, packetBytes"
vector 269 Spoofing.node[9].wlan[0].mac.dcf packetReceivedFromPeer:vector(packetBytes) ETV
attr interpolationmode none
attr recordingmode vector(packetBytes)
attr title "packets received, packetBytes"
vector 270 Spoofing.node[9].wlan[0].mac.dcf packetReceivedFromPeerMulticast:vector(packetBytes) ETV
attr interpolationmode none
attr recordingmode vector(packetBytes)
attr source ieee80211Multicast(packetReceivedFromPeer)
attr title "packets received: multicast, packetBytes"
vector 271 Spoofing.node[9].wlan[0].mac.dcf packetReceivedFromPeerWithoutRetry:vector(packetBytes) ETV
attr interpolationmode none
attr recordingmode vector(packetBytes)
attr source ieee80211NotRetry(packetReceivedFromPeer)
attr title "packets received: without retry, packetBytes"
vector 272 Spoofing.node[9].wlan[0].mac packetSentToUpper:vector(packetBytes) ETV
attr interpolationmode none
attr recordingmode vector(packetBytes)
attr title "packets sent to upper layer, packetBytes"
vector 273 Spoofing.node[9].udp packetReceived:vector(packetBytes) ETV
attr interpolationmode none
attr recordingmode vector(packetBytes)
attr source packetReceived
attr title "packets received, packetBytes"
vector 274 Spoofing.node[9].app[0] packetReceived:vector(packetBytes) ETV
attr interpolationmode none
attr recordingmode vector(packetBytes)
attr source packetReceived
attr title "packets received, packetBytes"
vector 275 Spoofing.node[9].app[0] throughput:vector ETV
attr recordingmode vector
attr source throughput(packetReceived)
attr title throughput
attr unit bps
vector 276 Spoofing.node[9].app[0] rcvdPkLifetime:vector ETV
attr interpolationmode none
attr recordingmode vector
attr source dataAge(packetReceived)
attr title "received packet lifetime"
attr unit s
vector 277 Spoofing.node[9].app[0] packetSent:vector(packetBytes) ETV
attr interpolationmode none
attr recordingmode vector(packetBytes)
attr source packetSent
attr title "packets sent, packetBytes"
vector 278 Spoofing.node[9].udp packetSent:vector(packetBytes) ETV
attr interpolationmode none
attr recordingmode vector(packetBytes)
attr source packetSent
attr title "packets sent, packetBytes"
vector 279 Spoofing.node[9].lo[0].lo rcvdPkFromHl:vector(packetBytes) ETV
attr interpolationmode none
attr recordingmode vector(packetBytes)
attr source packetReceivedFromUpper
attr title "packets received from higher layer, packetBytes"
vector 280 Spoofing.node[9].lo[0].lo passedUpPk:vector(packetBytes) ETV
attr interpolationmode none
attr recordingmode vector(packetBytes)
attr source packetSentToUpper
attr title "packets passed to higher layer, packetBytes"
vector 281 Spoofing.node[9].wlan[0].mac packetReceivedFromUpper:vector(packetBytes) ETV
attr interpolationmode none
attr recordingmode vector(packetBytes)
attr title "packets received from upper layer, packetBytes"
vector 282 Spoofing.node[9].wlan[0].mac.dcf.channelAccess.pendingQueue incomingPacketLengths:vector ETV
attr interpolationmode none
attr recordingmode vector
attr source packetLength(packetPushStarted)
attr title "incoming packet lengths"
attr unit b
vector 283 Spoofing.node[9].wlan[0].mac.dcf.channelAccess.pendingQueue incomingDataRate:vector ETV
attr interpolationmode linear
attr recordingmode vector
attr source throughput(packetPushStarted)
attr title "incoming datarate"
attr unit bps
vector 284 Spoofing.node[9].wlan[0].mac.dcf.channelAccess.pendingQueue queueLength:vector ETV
attr autoWarmupFilter false
attr interpolationmode sample-hold
attr recordingmode vector
attr source "warmup(atomic(constant0(packetPushEnded) + count(packetPushStarted) - count(packetPulled) - count(packetRemoved) - count(packetDropped)))"
attr title "queue length"
attr unit pk
vector 285 Spoofing.node[9].wlan[0].mac.dcf.channelAccess.pendingQueue queueBitLength:vector ETV
attr autoWarmupFilter false
attr interpolationmode sample-hold
attr recordingmode vector
attr source "warmup(atomic(constant0(packetPushEnded) + sum(packetLength(packetPushStarted)) - sum(packetLength(packetPulled)) - sum(packetLength(packetRemoved)) - sum(packetLength(packetDropped))))"
attr title "queue bit length"
attr unit b
vector 286 Spoofing.node[9].wlan[0].mac.dcf.channelAccess.contention backoffPeriodGenerated:vector ETV
attr interpolationmode none
attr recordingmode vector
attr title "backoff periods"
vector 287 Spoofing.node[4].wlan[0].mac packetReceivedFromLower:vector(packetBytes) ETV
attr interpolationmode none
attr recordingmode vector(packetBytes)
attr title "packets received from lower layer, packetBytes"
vector 288 Spoofing.node[4].wlan[0].mac.dcf packetReceivedFromPeer:vector(packetBytes) ETV
attr interpolationmode none
attr recordingmode vector(packetBytes)
attr title "packets received, packetBytes"
vector 289 Spoofing.node[4].wlan[0].mac.dcf packetReceivedFromPeerMulticast:vector(packetBytes) ETV
attr interpolationmode none
attr recordingmode vector(packetBytes)
attr source ieee80211Multicast(packetReceivedFromPeer)
attr title "packets received: multicast, packetBytes"
vector 290 Spoofing.node[4].wlan[0].mac.dcf packetReceivedFromPeerWithoutRetry:vector(packetBytes) ETV
attr interpolationmode none
attr recordingmode vector(packetBytes)
attr source ieee80211NotRetry(packetReceivedFromPeer)
attr title "packets received: without retry, packetBytes"
vector 291 Spoofing.node[4].wlan[0].mac packetSentToUpper:vector(packetBytes) ETV
attr interpolationmode none
attr recordingmode vector(packetBytes)
attr title "packets sent to upper layer, packetBytes"
vector 292 Spoofing.node[4].udp packetReceived:vector(packetBytes) ETV
attr interpolationmode none
attr recordingmode vector(packetBytes)
attr source packetReceived
attr title "packets received, packetBytes"
vector 293 Spoofing.node[4].app[0] packetReceived:vector(packetBytes) ETV
attr interpolationmode none
attr recordingmode vector(packetBytes)
attr source packetReceived
attr title "packets received, packetBytes"
vector 294 Spoofing.node[4].app[0] throughput:vector ETV
attr recordingmode vector
attr source throughput(packetReceived)
attr title throughput
attr unit bps
vector 295 Spoofing.node[4].app[0] rcvdPkLifetime:vector ETV
attr interpolationmode none
attr recordingmode vector
attr source dataAge(packetReceived)
attr title "received packet lifetime"
attr unit s
vector 296 Spoofing.node[4].app[0] packetSent:vector(packetBytes) ETV
attr interpolationmode none
attr recordingmode vector(packetBytes)
attr source packetSent
attr title "packets sent, packetBytes"
vector 297 Spoofing.node[4].udp packetSent:vector(packetBytes) ETV
attr interpolationmode none
attr recordingmode vector(packetBytes)
attr source packetSent
attr title "packets sent, packetBytes"
vector 298 Spoofing.node[4].lo[0].lo rcvdPkFromHl:vector(packetBytes) ETV
attr interpolationmode none
attr recordingmode vector(packetBytes)
attr source packetReceivedFromUpper
attr title "packets received from higher layer, packetBytes"
vector 299 Spoofing.node[4].lo[0].lo passedUpPk:vector(packetBytes) ETV
attr interpolationmode none
attr recordingmode vector(packetBytes)
attr source packetSentToUpper
attr title "packets passed to higher layer, packetBytes"
vector 300 Spoofing.node[4].wlan[0].mac packetReceivedFromUpper:vector(packetBytes) ETV
attr interpolationmode none
attr recordingmode vector(packetBytes)
attr title "packets received from upper layer, packetBytes"
vector 301 Spoofing.node[4].wlan[0].mac.dcf.channelAccess.pendingQueue incomingPacketLengths:vector ETV
attr interpolationmode none
attr recordingmode vector
attr source packetLength(packetPushStarted)
attr title "incoming packet lengths"
attr unit b
vector 302 Spoofing.node[4].wlan[0].mac.dcf.channelAccess.pendingQueue incomingDataRate:vector ETV
attr interpolationmode linear
attr recordingmode vector
attr source throughput(packetPushStarted)
attr title "incoming datarate"
attr unit bps
vector 303 Spoofing.node[4].wlan[0].mac.dcf.channelAccess.pendingQueue queueLength:vector ETV
attr autoWarmupFilter false
attr interpolationmode sample-hold
attr recordingmode vector
attr source "warmup(atomic(constant0(packetPushEnded) + count(packetPushStarted) - count(packetPulled) - count(packetRemoved) - count(packetDropped)))"
attr title "queue length"
attr unit pk
vector 304 Spoofing.node[4].wlan[0].mac.dcf.channelAccess.pendingQueue queueBitLength:vector ETV
attr autoWarmupFilter false
attr interpolationmode sample-hold
attr recordingmode vector
attr source "warmup(atomic(constant0(packetPushEnded) + sum(packetLength(packetPushStarted)) - sum(packetLength(packetPulled)) - sum(packetLength(packetRemoved)) - sum(packetLength(packetDropped))))"
attr title "queue bit length"
attr unit b
vector 305 Spoofing.node[4].wlan[0].mac.dcf.channelAccess.contention backoffPeriodGenerated:vector ETV
attr interpolationmode none
attr recordingmode vector
attr title "backoff periods"
vector 306 Spoofing.node[6].wlan[0].mac packetReceivedFromLower:vector(packetBytes) ETV
attr interpolationmode none
attr recordingmode vector(packetBytes)
attr title "packets received from lower layer, packetBytes"
vector 307 Spoofing.node[6].wlan[0].mac.dcf packetReceivedFromPeer:vector(packetBytes) ETV
attr interpolationmode none
attr recordingmode vector(packetBytes)
attr title "packets received, packetBytes"
vector 308 Spoofing.node[6].wlan[0].mac.dcf packetReceivedFromPeerMulticast:vector(packetBytes) ETV
attr interpolationmode none
attr recordingmode vector(packetBytes)
attr source ieee80211Multicast(packetReceivedFromPeer)
attr title "packets received: multicast, packetBytes"
vector 309 Spoofing.node[6].wlan[0].mac.dcf packetReceivedFromPeerWithoutRetry:vector(packetBytes) ETV
attr interpolationmode none
attr recordingmode vector(packetBytes)
attr source ieee80211NotRetry(packetReceivedFromPeer)
attr title "packets received: without retry, packetBytes"
vector 310 Spoofing.node[6].wlan[0].mac packetSentToUpper:vector(packetBytes) ETV
attr interpolationmode none
attr recordingmode vector(packetBytes)
attr title "packets sent to upper layer, packetBytes"
vector 311 Spoofing.node[6].udp packetReceived:vector(packetBytes) ETV
attr interpolationmode none
attr recordingmode vector(packetBytes)
attr source packetReceived
attr title "packets received, packetBytes"
vector 312 Spoofing.node[6].app[0] packetReceived:vector(packetBytes) ETV
attr interpolationmode none
attr recordingmode vector(packetBytes)
attr source packetReceived
attr title "packets received, packetBytes"
vector 313 Spoofing.node[6].app[0] throughput:vector ETV
attr recordingmode vector
attr source throughput(packetReceived)
attr title throughput
attr unit bps
vector 314 Spoofing.node[6].app[0] rcvdPkLifetime:vector ETV
attr interpolationmode none
attr recordingmode vector
attr source dataAge(packetReceived)
attr title "received packet lifetime"
attr unit s
vector 315 Spoofing.node[6].app[0] packetSent:vector(packetBytes) ETV
attr interpolationmode none
attr recordingmode vector(packetBytes)
attr source packetSent
attr title "packets sent, packetBytes"
vector 316 Spoofing.node[6].udp packetSent:vector(packetBytes) ETV
attr interpolationmode none
attr recordingmode vector(packetBytes)
attr source packetSent
attr title "packets sent, packetBytes"
vector 317 Spoofing.node[6].lo[0].lo rcvdPkFromHl:vector(packetBytes) ETV
attr interpolationmode none
attr recordingmode vector(packetBytes)
attr source packetReceivedFromUpper
attr title "packets received from higher layer, packetBytes"
vector 318 Spoofing.node[6].lo[0].lo passedUpPk:vector(packetBytes) ETV
attr interpolationmode none
attr recordingmode vector(packetBytes)
attr source packetSentToUpper
attr title "packets passed to higher layer, packetBytes"
vector 319 Spoofing.node[6].wlan[0].mac packetReceivedFromUpper:vector(packetBytes) ETV
attr interpolationmode none
attr recordingmode vector(packetBytes)
attr title "packets received from upper layer, packetBytes"
vector 320 Spoofing.node[6].wlan[0].mac.dcf.channelAccess.pendingQueue incomingPacketLengths:vector ETV
attr interpolationmode none
attr recordingmode vector
attr source packetLength(packetPushStarted)
attr title "incoming packet lengths"
attr unit b
vector 321 Spoofing.node[6].wlan[0].mac.dcf.channelAccess.pendingQueue incomingDataRate:vector ETV
attr interpolationmode linear
attr recordingmode vector
attr source throughput(packetPushStarted)
attr title "incoming datarate"
attr unit bps
vector 322 Spoofing.node[6].wlan[0].mac.dcf.channelAccess.pendingQueue queueLength:vector ETV
attr autoWarmupFilter false
attr interpolationmode sample-hold
attr recordingmode vector
attr source "warmup(atomic(constant0(packetPushEnded) + count(packetPushStarted) - count(packetPulled) - count(packetRemoved) - count(packetDropped)))"
attr title "queue length"
attr unit pk
vector 323 Spoofing.node[6].wlan[0].mac.dcf.channelAccess.pendingQueue queueBitLength:vector ETV
attr autoWarmupFilter false
attr interpolationmode sample-hold
attr recordingmode vector
attr source "warmup(atomic(constant0(packetPushEnded) + sum(packetLength(packetPushStarted)) - sum(packetLength(packetPulled)) - sum(packetLength(packetRemoved)) - sum(packetLength(packetDropped))))"
attr title "queue bit length"
attr unit b
vector 324 Spoofing.node[6].wlan[0].mac.dcf.channelAccess.contention backoffPeriodGenerated:vector ETV
attr interpolationmode none
attr recordingmode vector
attr title "backoff periods"
vector 325 Spoofing.node[3].wlan[0].mac.dcf.channelAccess.pendingQueue queueingTime:vector ETV
attr interpolationmode none
attr recordingmode vector
attr source queueingTime(packetPulled)
attr title "queueing times"
attr unit s
vector 326 Spoofing.node[3].wlan[0].mac.dcf.channelAccess.pendingQueue outgoingPacketLengths:vector ETV
attr interpolationmode none
attr recordingmode vector
attr source packetLength(packetPulled)
attr title "outgoing packet lengths"
attr unit b
vector 327 Spoofing.node[3].wlan[0].mac.dcf.channelAccess.pendingQueue outgoingDataRate:vector ETV
attr interpolationmode linear
attr recordingmode vector
attr source throughput(packetPulled)
attr title "outgoing datarate"
attr unit bps
vector 328 Spoofing.node[3].wlan[0].mac.dcf datarateSelected:vector ETV
attr interpolationmode none
attr recordingmode vector
attr title "datarates selected"
vector 329 Spoofing.node[3].wlan[0].mac packetSentToLower:vector(packetBytes) ETV
attr interpolationmode none
attr recordingmode vector(packetBytes)
attr title "packets sent to lower layer, packetBytes"
vector 330 Spoofing.node[3].wlan[0].radio transmissionState:vector ETV
attr interpolationmode sample-hold
attr recordingmode vector
attr source transmissionStateChanged
attr title "Radio transmission state"
vector 331 Spoofing.node[3].wlan[0].mac.dcf packetSentToPeer:vector(packetBytes) ETV
attr interpolationmode none
attr recordingmode vector(packetBytes)
attr title "packets sent, packetBytes"
vector 332 Spoofing.node[3].wlan[0].mac.dcf packetSentToPeerMulticast:vector(packetBytes) ETV
attr interpolationmode none
attr recordingmode vector(packetBytes)
attr source ieee80211Multicast(packetSentToPeer)
attr title "packets sent: multicast, packetBytes"
vector 333 Spoofing.node[3].wlan[0].mac.dcf packetSentToPeerWithoutRetry:vector(packetBytes) ETV
attr interpolationmode none
attr recordingmode vector(packetBytes)
attr source ieee80211NotRetry(packetSentToPeer)
attr title "packets sent: without retry, packetBytes"
vector 334 Spoofing.node[3].wlan[0].mac.dcf.channelAccess.inProgressFrames queueingTime:vector ETV
attr interpolationmode none
attr recordingmode vector
attr source queueingTime(packetDequeued)
attr title "queueing times"
vector 335 Spoofing.node[8].wlan[0].mac packetReceivedFromLower:vector(packetBytes) ETV
[...]
67	1218	177.3	0
67	1218	177.4	0
67	1218	177.5	0
67	1218	177.6	0
67	1218	177.7	0
67	1218	177.8	0
67	1218	177.9	0
67	1218	178	0
67	1218	178.1	0
67	1218	178.2	0
67	1218	178.3	0
67	1218	178.4	0
67	1218	178.5	0
67	1218	178.6	0
67	1218	178.7	0
67	1218	178.8	0
67	1218	178.9	0
67	1218	179	0
67	1218	179.1	0
67	1218	179.2	0
67	1218	179.3	0
67	1218	179.4	0
67	1218	179.5	0
67	1218	179.6	0
67	1218	179.7	0
67	1218	179.8	0
67	1218	179.9	0
67	1218	180	0
67	1218	180.1	0
67	1218	180.2	0
67	1218	180.3	0
67	1218	180.4	0
67	1218	180.5	0
67	1218	180.6	0
67	1218	180.7	0
67	1218	180.8	0
67	1218	180.9	0
67	1218	181	0
67	1218	181.1	0
67	1218	181.2	0
67	1218	181.3	0
67	1218	181.4	0
67	1218	181.5	0
67	1218	181.6	0
67	1218	181.7	0
67	1218	181.8	0
67	1218	181.9	0
67	1218	182	0
67	1218	182.1	0
67	1218	182.2	0
67	1218	182.3	0
67	1218	182.4	0
67	1218	182.5	0
67	1218	182.6	0
67	1218	182.7	0
67	1218	182.8	0
67	1218	182.9	0
67	1218	183	0
67	1218	183.1	0
67	1218	183.2	0
67	1218	183.3	0
67	1218	183.4	0
67	1218	183.5	0
67	1218	183.6	0
67	1218	183.7	0
67	1218	183.8	0
67	1218	183.9	0
67	1218	184	0
67	1218	184.1	0
67	1218	184.2	0
67	1218	184.3	0
67	1218	184.4	0
67	1218	184.5	0
67	1218	184.6	0
67	1218	184.7	0
67	1218	184.8	0
67	1218	184.9	0
67	1218	185	0
67	1218	185.1	0
67	1218	185.2	0
67	1218	185.3	0
67	1218	185.4	0
67	1218	185.5	0
67	1218	185.6	0
67	1218	185.7	0
67	1218	185.8	0
67	1218	185.9	0
67	1218	186	0
67	1218	186.1	0
67	1218	186.2	0
67	1218	186.3	0
67	1218	186.4	0
67	1218	186.5	0
67	1218	186.6	0
67	1218	186.7	0
67	1218	186.8	0
67	1218	186.9	0
67	1218	187	0
67	1218	187.1	0
67	1218	187.2	0
67	1218	187.3	0
67	1218	187.4	0
67	1218	187.5	0
67	1218	187.6	0
67	1218	187.7	0
67	1218	187.8	0
67	1218	187.9	0
67	1218	188	0
67	1218	188.1	0
67	1218	188.2	0
67	1218	188.3	0
67	1218	188.4	0
67	1218	188.5	0
67	1218	188.6	0
67	1218	188.7	0
67	1218	188.8	0
67	1218	188.9	0
67	1218	189	0
67	1218	189.1	0
67	1218	189.2	0
67	1218	189.3	0
67	1218	189.4	0
67	1218	189.5	0
67	1218	189.6	0
67	1218	189.7	0
67	1218	189.8	0
67	1218	189.9	0
67	1218	190	0
67	1218	190.1	0
67	1218	190.2	0
67	1218	190.3	0
67	1218	190.4	0
67	1218	190.5	0
67	1218	190.6	0
67	1218	190.7	0
67	1218	190.8	0
67	1218	190.9	0
67	1218	191	0
67	1218	191.1	0
67	1218	191.2	0
67	1218	191.3	0
67	1218	191.4	0
67	1218	191.5	0
67	1218	191.6	0
67	1218	191.7	0
67	1218	191.8	0
67	1218	191.9	0
67	1218	192	0
67	1218	192.1	0
67	1218	192.2	0
67	1218	192.3	0
67	1218	192.4	0
67	1218	192.5	0
67	1218	192.6	0
67	1218	192.7	0
67	1218	192.8	0
67	1218	192.9	0
67	1218	193	0
67	1218	193.1	0
67	1218	193.2	0
67	1218	193.3	0
67	1218	193.4	0
67	1218	193.5	0
67	1218	193.6	0
67	1218	193.7	0
67	1218	193.8	0
67	1218	193.9	0
67	1218	194	0
67	1218	194.1	0
67	1218	194.2	0
67	1218	194.3	0
67	1218	194.4	0
67	1218	194.5	0
67	1218	194.6	0
67	1218	194.7	0
67	1218	194.8	0
67	1218	194.9	0
67	1218	195	0
67	1218	195.1	0
67	1218	195.2	0
67	1218	195.3	0
67	1218	195.4	0
67	1218	195.5	0
67	1218	195.6	0
67	1218	195.7	0
67	1218	195.8	0
67	1218	195.9	0
67	1218	196	0
67	1218	196.1	0
67	1218	196.2	0
67	1218	196.3	0
67	1218	196.4	0
67	1218	196.5	0
67	1218	196.6	0
67	1218	196.7	0
67	1218	196.8	0
67	1218	196.9	0
67	1218	197	0
67	1218	197.1	0
67	1218	197.2	0
67	1218	197.3	0
67	1218	197.4	0
67	1218	197.5	0
67	1218	197.6	0
67	1218	197.7	0
67	1218	197.8	0
67	1218	197.9	0
67	1218	198	0
67	1218	198.1	0
67	1218	198.2	0
67	1218	198.3	0
67	1218	198.4	0
67	1218	198.5	0
67	1218	198.6	0
67	1218	198.7	0
67	1218	198.8	0
67	1218	198.9	0
67	1218	199	0
67	1218	199.1	0
67	1218	199.2	0
67	1218	199.3	0
67	1218	199.4	0
67	1218	199.5	0
67	1218	199.6	0
67	1218	199.7	0
67	1218	199.8	0
67	1218	199.9	0
67	1218	200	0
67	1218	200.1	0
67	1218	200.2	0
67	1218	200.3	0
67	1218	200.4	0
67	1218	200.5	0
67	1218	200.6	0
67	1218	200.7	0
67	1218	200.8	0
67	1218	200.9	0
67	1218	201	0
67	1218	201.1	0
67	1218	201.2	0
67	1218	201.3	0
67	1218	201.4	0
67	1218	201.5	0
67	1218	201.6	0
67	1218	201.7	0
67	1218	201.8	0
67	1218	201.9	0
67	1218	202	0
67	1218	202.1	0
67	1218	202.2	0
67	1218	202.3	0
67	1218	202.4	0
67	1218	202.5	0
67	1218	202.6	0
67	1218	202.7	0
67	1218	202.8	0
67	1218	202.9	0
67	1218	203	0
67	1218	203.1	0
67	1218	203.2	0
67	1218	203.3	0
67	1218	203.4	0
67	1218	203.5	0
67	1218	203.6	0
67	1218	203.7	0
67	1218	203.8	0
67	1218	203.9	0
67	1218	204	0
67	1218	204.1	0
67	1218	204.2	0
67	1218	204.3	0
67	1218	204.4	0
67	1218	204.5	0
67	1218	204.6	0
67	1218	204.7	0
67	1218	204.8	0
67	1218	204.9	0
67	1218	205	0
67	1218	205.1	0
67	1218	205.2	0
67	1218	205.3	0
67	1218	205.4	0
67	1218	205.5	0
67	1218	205.6	0
67	1218	205.7	0
67	1218	205.8	0
67	1218	205.9	0
67	1218	206	0
67	1218	206.1	0
67	1218	206.2	0
67	1218	206.3	0
67	1218	206.4	0
67	1218	206.5	0
67	1218	206.6	0
67	1218	206.7	0
67	1218	206.8	0
67	1218	206.9	0
67	1218	207	0
67	1218	207.1	0
67	1218	207.2	0
67	1218	207.3	0
67	1218	207.4	0
67	1218	207.5	0
67	1218	207.6	0
67	1218	207.7	0
67	1218	207.8	0
67	1218	207.9	0
67	1218	208	0
67	1218	208.1	0
67	1218	208.2	0
67	1218	208.3	0
67	1218	208.4	0
67	1218	208.5	0
67	1218	208.6	0
67	1218	208.7	0
67	1218	208.8	0
67	1218	208.9	0
67	1218	209	0
67	1218	209.1	0
67	1218	209.2	0
67	1218	209.3	0
67	1218	209.4	0
67	1218	209.5	0
67	1218	209.6	0
67	1218	209.7	0
67	1218	209.8	0
67	1218	209.9	0
67	1218	210	0
67	1218	210.1	0
67	1218	210.2	0
67	1218	210.3	0
67	1218	210.4	0
67	1218	210.5	0
67	1218	210.6	0
67	1218	210.7	0
67	1218	210.8	0
67	1218	210.9	0
67	1218	211	0
67	1298	211.1	8000
67	1298	211.2	0
67	1298	211.3	0
67	1298	211.4	0
67	1298	211.5	0
67	1298	211.6	0
67	1298	211.7	0
67	1298	211.8	0
67	1298	211.9	0
67	1298	212	0
67	1298	212.1	0
67	1298	212.2	0
67	1298	212.3	0
67	1298	212.4	0
67	1298	212.5	0
67	1298	212.6	0
67	1298	212.7	0
67	1298	212.8	0
67	1298	212.9	0
67	1298	213	0
67	1298	213.1	0
67	1298	213.2	0
67	1298	213.3	0
67	1298	213.4	0
67	1298	213.5	0
67	1298	213.6	0
67	1298	213.7	0
67	1298	213.8	0
67	1298	213.9	0
67	1298	214	0
67	1298	214.1	0
67	1298	214.2	0
67	1298	214.3	0
67	1298	214.4	0
67	1298	214.5	0
67	1298	214.6	0
67	1298	214.7	0
67	1298	214.8	0
67	1298	214.9	0
67	1298	215	0
67	1298	215.1	0
67	1298	215.2	0
67	1298	215.3	0
67	1298	215.4	0
67	1298	215.5	0
67	1298	215.6	0
67	1298	215.7	0
67	1298	215.8	0
67	1298	215.9	0
67	1298	216	0
67	1298	216.1	0
67	1298	216.2	0
67	1298	216.3	0
67	1298	216.4	0
67	1298	216.5	0
67	1298	216.6	0
67	1298	216.7	0
67	1298	216.8	0
67	1298	216.9	0
67	1298	217	0
67	1298	217.1	0
67	1298	217.2	0
67	1298	217.3	0
67	1298	217.4	0
67	1298	217.5	0
67	1298	217.6	0
67	1298	217.7	0
67	1298	217.8	0
67	1298	217.9	0
67	1298	218	0
67	1298	218.1	0
67	1298	218.2	0
67	1298	218.3	0
67	1298	218.4	0
67	1298	218.5	0
67	1298	218.6	0
67	1298	218.7	0
67	1298	218.8	0
67	1298	218.9	0
67	1298	219	0
67	1298	219.1	0
67	1298	219.2	0
67	1298	219.3	0
67	1298	219.4	0
67	1298	219.5	0
67	1298	219.6	0
67	1298	219.7	0
67	1298	219.8	0
67	1298	219.9	0
67	1298	220	0
67	1298	220.1	0
67	1298	220.2	0
67	1298	220.3	0
67	1298	220.4	0
67	1298	220.5	0
67	1298	220.6	0
67	1298	220.7	0
67	1298	220.8	0
67	1298	220.9	0
67	1298	221	0
67	1298	221.1	0
67	1298	221.2	0
67	1298	221.3	0
67	1298	221.4	0
67	1298	221.5	0
67	1298	221.6	0
67	1298	221.7	0
67	1298	221.8	0
67	1298	221.9	0
67	1298	222	0
67	1298	222.1	0
67	1298	222.2	0
67	1298	222.3	0
67	1298	222.4	0
67	1298	222.5	0
67	1298	222.6	0
67	1298	222.7	0
67	1298	222.8	0
67	1298	222.9	0
67	1298	223	0
67	1298	223.1	0
67	1298	223.2	0
67	1298	223.3	0
67	1298	223.4	0
67	1298	223.5	0
67	1298	223.6	0
67	1298	223.7	0
67	1298	223.8	0
67	1298	223.9	0
67	1298	224	0
67	1298	224.1	0
67	1298	224.2	0
67	1298	224.3	0
67	1298	224.4	0
67	1298	224.5	0
67	1298	224.6	0
67	1298	224.7	0
67	1298	224.8	0
67	1298	224.9	0
67	1298	225	0
67	1298	225.1	0
67	1298	225.2	0
67	1298	225.3	0
67	1298	225.4	0
67	1298	225.5	0
67	1298	225.6	0
67	1298	225.7	0
67	1298	225.8	0
67	1298	225.9	0
67	1298	226	0
67	1298	226.1	0
67	1298	226.2	0
67	1298	226.3	0
67	1298	226.4	0
67	1298	226.5	0
67	1298	226.6	0
67	1298	226.7	0
67	1298	226.8	0
67	1298	226.9	0
67	1298	227	0
67	1298	227.1	0
67	1298	227.2	0
67	1298	227.3	0
67	1298	227.4	0
67	1298	227.5	0
67	1298	227.6	0
67	1298	227.7	0
67	1298	227.8	0
67	1298	227.9	0
67	1298	228	0
67	1298	228.1	0
67	1298	228.2	0
67	1298	228.3	0
67	1298	228.4	0
67	1298	228.5	0
67	1298	228.6	0
67	1298	228.7	0
67	1298	228.8	0
67	1298	228.9	0
67	1298	229	0
67	1298	229.1	0
67	1298	229.2	0
67	1298	229.3	0
67	1298	229.4	0
67	1298	229.5	0
67	1298	229.6	0
67	1298	229.7	0
67	1298	229.8	0
67	1298	229.9	0
67	1298	230	0
67	1298	230.1	0
67	1298	230.2	0
67	1298	230.3	0
67	1298	230.4	0
67	1298	230.5	0
67	1298	230.6	0
67	1298	230.7	0
67	1298	230.8	0
67	1298	230.9	0
67	1298	231	0
67	1298	231.1	0
67	1298	231.2	0
67	1298	231.3	0
67	1298	231.4	0
67	1298	231.5	0
67	1298	231.6	0
67	1298	231.7	0
67	1298	231.8	0
67	1298	231.9	0
67	1298	232	0
67	1298	232.1	0
67	1298	232.2	0
67	1298	232.3	0
67	1298	232.4	0
67	1298	232.5	0
67	1298	232.6	0
67	1298	232.7	0
67	1298	232.8	0
67	1298	232.9	0
67	1298	233	0
67	1298	233.1	0
67	1298	233.2	0
67	1298	233.3	0
67	1298	233.4	0
67	1298	233.5	0
67	1298	233.6	0
67	1298	233.7	0
67	1298	233.8	0
67	1298	233.9	0
67	1298	234	0
67	1298	234.1	0
67	1298	234.2	0
67	1298	234.3	0
67	1298	234.4	0
67	1298	234.5	0
67	1298	234.6	0
67	1298	234.7	0
67	1298	234.8	0
67	1298	234.9	0
67	1298	235	0
67	1298	235.1	0
67	1298	235.2	0
67	1298	235.3	0
67	1298	235.4	0
67	1298	235.5	0
67	1298	235.6	0
67	1298	235.7	0
67	1298	235.8	0
67	1298	235.9	0
67	1298	236	0
67	1298	236.1	0
67	1298	236.2	0
67	1298	236.3	0
67	1298	236.4	0
67	1298	236.5	0
67	1298	236.6	0
67	1298	236.7	0
67	1298	236.8	0
67	1298	236.9	0
67	1298	237	0
67	1298	237.1	0
67	1298	237.2	0
67	1298	237.3	0
67	1298	237.4	0
67	1298	237.5	0
67	1298	237.6	0
67	1298	237.7	0
67	1298	237.8	0
67	1298	237.9	0
67	1298	238	0
67	1298	238.1	0
67	1298	238.2	0
67	1298	238.3	0
67	1298	238.4	0
67	1298	238.5	0
67	1298	238.6	0
67	1298	238.7	0
67	1298	238.8	0
67	1298	238.9	0
67	1298	239	0
67	1298	239.1	0
67	1298	239.2	0
67	1298	239.3	0
67	1298	239.4	0
67	1298	239.5	0
67	1298	239.6	0
67	1298	239.7	0
67	1298	239.8	0
67	1298	239.9	0
67	1298	240	0
67	1298	240.1	0
67	1298	240.2	0
67	1298	240.3	0
67	1298	240.4	0
67	1298	240.5	0
67	1298	240.6	0
67	1298	240.7	0
67	1298	240.8	0
67	1298	240.9	0
67	1298	241	0
67	1298	241.1	0
67	1298	241.2	0
67	1298	241.3	0
67	1298	241.4	0
67	1298	241.5	0
67	1298	241.6	0
67	1298	241.7	0
67	1298	241.8	0
67	1298	241.9	0
67	1298	242	0
67	1298	242.1	0
67	1298	242.2	0
67	1298	242.3	0
67	1298	242.4	0
67	1298	242.5	0
67	1298	242.6	0
67	1298	242.7	0
67	1298	242.8	0
67	1298	242.9	0
67	1298	243	0
67	1298	243.1	0
67	1298	243.2	0
67	1298	243.3	0
67	1298	243.4	0
67	1298	243.5	0
67	1298	243.6	0
67	1298	243.7	0
67	1298	243.8	0
67	1298	243.9	0
67	1298	244	0
67	1298	244.1	0
67	1298	244.2	0
67	1298	244.3	0
67	1298	244.4	0
67	1298	244.5	0
67	1298	244.6	0
67	1298	244.7	0
67	1298	244.8	0
67	1298	244.9	0
67	1298	245	0
67	1298	245.1	0
67	1298	245.2	0
67	1298	245.3	0
67	1298	245.4	0
67	1298	245.5	0
67	1298	245.6	0
67	1298	245.7	0
67	1298	245.8	0
67	1298	245.9	0
67	1298	246	0
67	1373	246.1	8000
67	1373	246.2	0
67	1373	246.3	0
67	1373	246.4	0
67	1373	246.5	0
67	1373	246.6	0
67	1373	246.7	0
67	1373	246.8	0
67	1373	246.9	0
67	1373	247	0
67	1373	247.1	0
67	1373	247.2	0
67	1373	247.3	0
67	1373	247.4	0
67	1373	247.5	0
67	1373	247.6	0
67	1373	247.7	0
67	1373	247.8	0
67	1373	247.9	0
67	1373	248	0
67	1373	248.1	0
67	1373	248.2	0
67	1373	248.3	0
67	1373	248.4	0
67	1373	248.5	0
67	1373	248.6	0
67	1373	248.7	0
67	1373	248.8	0
67	1373	248.9	0
67	1373	249	0
67	1373	249.1	0
67	1373	249.2	0
67	1373	249.3	0
67	1373	249.4	0
67	1373	249.5	0
67	1373	249.6	0
67	1373	249.7	0
67	1373	249.8	0
67	1373	249.9	0
67	1373	250	0
67	1373	250.1	0
67	1373	250.2	0
67	1373	250.3	0
67	1373	250.4	0
67	1373	250.5	0
67	1373	250.6	0
67	1373	250.7	0
67	1373	250.8	0
67	1373	250.9	0
67	1373	251	0
67	1373	251.1	0
67	1373	251.2	0
67	1373	251.3	0
67	1373	251.4	0
67	1373	251.5	0
67	1373	251.6	0
67	1373	251.7	0
67	1373	251.8	0
67	1373	251.9	0
67	1373	252	0
67	1373	252.1	0
67	1373	252.2	0
67	1373	252.3	0
67	1373	252.4	0
67	1373	252.5	0
67	1373	252.6	0
67	1373	252.7	0
67	1373	252.8	0
67	1373	252.9	0
67	1373	253	0
67	1373	253.1	0
67	1373	253.2	0
67	1373	253.3	0
67	1373	253.4	0
67	1373	253.5	0
67	1373	253.6	0
67	1373	253.7	0
67	1373	253.8	0
67	1373	253.9	0
67	1373	254	0
67	1373	254.1	0
67	1373	254.2	0
67	1373	254.3	0
67	1373	254.4	0
67	1373	254.5	0
67	1373	254.6	0
67	1373	254.7	0
67	1373	254.8	0
67	1373	254.9	0
67	1373	255	0
67	1373	255.1	0
67	1373	255.2	0
67	1373	255.3	0
67	1373	255.4	0
67	1373	255.5	0
67	1373	255.6	0
67	1373	255.7	0
67	1373	255.8	0
67	1373	255.9	0
67	1373	256	0
67	1373	256.1	0
67	1373	256.2	0
67	1373	256.3	0
67	1373	256.4	0
67	1373	256.5	0
67	1373	256.6	0
67	1373	256.7	0
67	1373	256.8	0
67	1373	256.9	0
67	1373	257	0
67	1373	257.1	0
67	1373	257.2	0
67	1373	257.3	0
67	1373	257.4	0
67	1373	257.5	0
67	1373	257.6	0
67	1373	257.7	0
67	1373	257.8	0
67	1373	257.9	0
67	1373	258	0
67	1373	258.1	0
67	1373	258.2	0
67	1373	258.3	0
67	1373	258.4	0
67	1373	258.5	0
67	1373	258.6	0
67	1373	258.7	0
67	1373	258.8	0
67	1373	258.9	0
67	1373	259	0
67	1373	259.1	0
67	1373	259.2	0
67	1373	259.3	0
67	1373	259.4	0
67	1373	259.5	0
67	1373	259.6	0
67	1373	259.7	0
67	1373	259.8	0
67	1373	259.9	0
67	1373	260	0
67	1373	260.1	0
67	1373	260.2	0
67	1373	260.3	0
67	1373	260.4	0
67	1373	260.5	0
67	1373	260.6	0
67	1373	260.7	0
67	1373	260.8	0
67	1373	260.9	0
67	1373	261	0
67	1373	261.1	0
67	1373	261.2	0
67	1373	261.3	0
67	1373	261.4	0
67	1373	261.5	0
67	1373	261.6	0
67	1373	261.7	0
67	1373	261.8	0
67	1373	261.9	0
67	1373	262	0
67	1373	262.1	0
67	1373	262.2	0
67	1373	262.3	0
67	1373	262.4	0
67	1373	262.5	0
67	1373	262.6	0
67	1373	262.7	0
67	1373	262.8	0
67	1373	262.9	0
67	1373	263	0
67	1373	263.1	0
67	1373	263.2	0
67	1373	263.3	0
67	1373	263.4	0
67	1373	263.5	0
67	1373	263.6	0
67	1373	263.7	0
67	1373	263.8	0
67	1373	263.9	0
67	1373	264	0
67	1373	264.1	0
67	1373	264.2	0
67	1373	264.3	0
67	1373	264.4	0
67	1373	264.5	0
67	1373	264.6	0
67	1373	264.7	0
67	1373	264.8	0
67	1373	264.9	0
67	1373	265	0
67	1373	265.1	0
67	1373	265.2	0
67	1373	265.3	0
67	1373	265.4	0
67	1373	265.5	0
67	1373	265.6	0
67	1373	265.7	0
67	1373	265.8	0
67	1373	265.9	0
67	1373	266	0
67	1373	266.1	0
67	1373	266.2	0
67	1373	266.3	0
67	1373	266.4	0
67	1373	266.5	0
67	1373	266.6	0
67	1373	266.7	0
67	1373	266.8	0
67	1373	266.9	0
67	1373	267	0
67	1373	267.1	0
67	1373	267.2	0
67	1373	267.3	0
67	1373	267.4	0
67	1373	267.5	0
67	1373	267.6	0
67	1373	267.7	0
67	1373	267.8	0
67	1373	267.9	0
67	1373	268	0
67	1373	268.1	0
67	1373	268.2	0
67	1373	268.3	0
67	1373	268.4	0
67	1373	268.5	0
67	1373	268.6	0
67	1373	268.7	0
67	1373	268.8	0
67	1373	268.9	0
67	1373	269	0
67	1373	269.1	0
67	1373	269.2	0
67	1373	269.3	0
67	1373	269.4	0
67	1373	269.5	0
67	1373	269.6	0
67	1373	269.7	0
67	1373	269.8	0
67	1373	269.9	0
67	1373	270	0
67	1373	270.1	0
67	1373	270.2	0
67	1373	270.3	0
67	1373	270.4	0
67	1373	270.5	0
67	1373	270.6	0
67	1373	270.7	0
67	1373	270.8	0
67	1373	270.9	0
67	1373	271	0
67	1373	271.1	0
67	1373	271.2	0
67	1373	271.3	0
67	1373	271.4	0
67	1373	271.5	0
67	1373	271.6	0
67	1373	271.7	0
67	1373	271.8	0
67	1373	271.9	0
67	1373	272	0
67	1373	272.1	0
67	1373	272.2	0
67	1373	272.3	0
67	1373	272.4	0
67	1373	272.5	0
67	1373	272.6	0
67	1373	272.7	0
67	1373	272.8	0
67	1373	272.9	0
67	1373	273	0
67	1373	273.1	0
67	1373	273.2	0
67	1373	273.3	0
67	1373	273.4	0
67	1373	273.5	0
67	1373	273.6	0
67	1373	273.7	0
67	1373	273.8	0
67	1373	273.9	0
67	1373	274	0
67	1373	274.1	0
67	1373	274.2	0
67	1373	274.3	0
67	1373	274.4	0
67	1373	274.5	0
67	1373	274.6	0
67	1373	274.7	0
67	1373	274.8	0
67	1373	274.9	0
67	1373	275	0
67	1373	275.1	0
67	1373	275.2	0
67	1373	275.3	0
67	1373	275.4	0
67	1373	275.5	0
67	1373	275.6	0
67	1373	275.7	0
67	1373	275.8	0
67	1373	275.9	0
67	1373	276	0
67	1373	276.1	0
67	1373	276.2	0
67	1373	276.3	0
67	1373	276.4	0
67	1373	276.5	0
67	1373	276.6	0
67	1373	276.7	0
67	1373	276.8	0
67	1373	276.9	0
67	1373	277	0
67	1373	277.1	0
67	1373	277.2	0
67	1373	277.3	0
67	1373	277.4	0
67	1373	277.5	0
67	1373	277.6	0
67	1373	277.7	0
67	1373	277.8	0
67	1373	277.9	0
67	1373	278	0
67	1373	278.1	0
67	1373	278.2	0
67	1373	278.3	0
67	1373	278.4	0
67	1373	278.5	0
67	1373	278.6	0
67	1373	278.7	0
67	1373	278.8	0
67	1373	278.9	0
67	1373	279	0
67	1373	279.1	0
67	1373	279.2	0
67	1373	279.3	0
67	1373	279.4	0
67	1373	279.5	0
67	1373	279.6	0
67	1373	279.7	0
67	1373	279.8	0
67	1373	279.9	0
67	1373	280	0
67	1373	280.1	0
67	1373	280.2	0
67	1373	280.3	0
67	1373	280.4	0
67	1373	280.5	0
67	1373	280.6	0
67	1373	280.7	0
67	1373	280.8	0
67	1373	280.9	0
67	1373	281	0
67	1411	281.1	8000
67	1411	281.2	0
67	1411	281.3	0
67	1411	281.4	0
67	1411	281.5	0
67	1411	281.6	0
67	1411	281.7	0
67	1411	281.8	0
67	1411	281.9	0
67	1411	282	0
67	1411	282.1	0
67	1411	282.2	0
67	1411	282.3	0
67	1411	282.4	0
67	1411	282.5	0
67	1411	282.6	0
67	1411	282.7	0
67	1411	282.8	0
67	1411	282.9	0
67	1411	283	0
67	1411	283.1	0
67	1411	283.2	0
67	1411	283.3	0
67	1411	283.4	0
67	1411	283.5	0
67	1411	283.6	0
67	1411	283.7	0
67	1411	283.8	0
67	1411	283.9	0
67	1411	284	0
67	1411	284.1	0
67	1411	284.2	0
67	1411	284.3	0
67	1411	284.4	0
67	1411	284.5	0
67	1411	284.6	0
67	1411	284.7	0
67	1411	284.8	0
67	1411	284.9	0
67	1411	285	0
67	1411	285.1	0
67	1411	285.2	0
67	1411	285.3	0
67	1411	285.4	0
67	1411	285.5	0
67	1411	285.6	0
67	1411	285.7	0
67	1411	285.8	0
67	1411	285.9	0
67	1411	286	0
67	1411	286.1	0
67	1411	286.2	0
67	1411	286.3	0
67	1411	286.4	0
67	1411	286.5	0
67	1411	286.6	0
67	1411	286.7	0
67	1411	286.8	0
67	1411	286.9	0
67	1411	287	0
67	1411	287.1	0
67	1411	287.2	0
67	1411	287.3	0
67	1411	287.4	0
67	1411	287.5	0
67	1411	287.6	0
67	1411	287.7	0
67	1411	287.8	0
67	1411	287.9	0
67	1411	288	0
67	1411	288.1	0
67	1411	288.2	0
67	1411	288.3	0
67	1411	288.4	0
67	1411	288.5	0
67	1411	288.6	0
67	1411	288.7	0
67	1411	288.8	0
67	1411	288.9	0
67	1411	289	0
67	1411	289.1	0
67	1411	289.2	0
67	1411	289.3	0
67	1411	289.4	0
67	1411	289.5	0
67	1411	289.6	0
67	1411	289.7	0
67	1411	289.8	0
67	1411	289.9	0
67	1411	290	0
67	1411	290.1	0
67	1411	290.2	0
67	1411	290.3	0
67	1411	290.4	0
67	1411	290.5	0
67	1411	290.6	0
67	1411	290.7	0
67	1411	290.8	0
67	1411	290.9	0
67	1411	291	0
67	1411	291.1	0
67	1411	291.2	0
67	1411	291.3	0
67	1411	291.4	0
67	1411	291.5	0
67	1411	291.6	0
67	1411	291.7	0
67	1411	291.8	0
67	1411	291.9	0
67	1411	292	0
67	1411	292.1	0
67	1411	292.2	0
67	1411	292.3	0
67	1411	292.4	0
67	1411	292.5	0
67	1411	292.6	0
67	1411	292.7	0
67	1411	292.8	0
67	1411	292.9	0
67	1411	293	0
67	1411	293.1	0
67	1411	293.2	0
67	1411	293.3	0
67	1411	293.4	0
67	1411	293.5	0
67	1411	293.6	0
67	1411	293.7	0
67	1411	293.8	0
67	1411	293.9	0
67	1411	294	0
67	1411	294.1	0
67	1411	294.2	0
67	1411	294.3	0
67	1411	294.4	0
67	1411	294.5	0
67	1411	294.6	0
67	1411	294.7	0
67	1411	294.8	0
67	1411	294.9	0
67	1411	295	0
67	1411	295.1	0
67	1411	295.2	0
67	1411	295.3	0
67	1411	295.4	0
67	1411	295.5	0
67	1411	295.6	0
67	1411	295.7	0
67	1411	295.8	0
67	1411	295.9	0
67	1411	296	0
67	1411	296.1	0
67	1411	296.2	0
67	1411	296.3	0
67	1411	296.4	0
67	1411	296.5	0
67	1411	296.6	0
67	1411	296.7	0
67	1411	296.8	0
67	1411	296.9	0
67	1411	297	0
67	1411	297.1	0
67	1411	297.2	0
67	1411	297.3	0
67	1411	297.4	0
67	1411	297.5	0
67	1411	297.6	0
67	1411	297.7	0
67	1411	297.8	0
67	1411	297.9	0
67	1411	298	0
67	1411	298.1	0
67	1411	298.2	0
67	1411	298.3	0
67	1411	298.4	0
67	1411	298.5	0
67	1411	298.6	0
67	1411	298.7	0
67	1411	298.8	0
67	1411	298.9	0
67	1411	299	0
67	1411	299.1	0
67	1411	299.2	0
67	1411	299.3	0
67	1411	299.4	0
67	1411	299.5	0
67	1411	299.6	0
67	1411	299.7	0
67	1411	299.8	0
67	1411	299.9	0
67	1411	300	0
67	1411	300.1	0
67	1411	300.2	0
67	1411	300.3	0
67	1411	300.4	0
67	1411	300.5	0
67	1411	300.6	0
67	1411	300.7	0
67	1411	300.8	0
67	1411	300.9	0
67	1411	301	0
67	1411	301.1	0
67	1411	301.2	0
67	1411	301.3	0
67	1411	301.4	0
67	1411	301.5	0
67	1411	301.6	0
67	1411	301.7	0
67	1411	301.8	0
67	1411	301.9	0
67	1411	302	0
66	61	36	100
66	144	71	100
66	219	106	100
66	314	106.00046810282	100
66	1063	141	100
66	1143	176	100
66	1218	211	100
66	1298	246	100
66	1373	281	100
55	52	36	100
55	135	71	100
55	210	106	100
55	1054	141	100
55	1134	176	100
55	1209	211	100
55	1289	246	100
55	1364	281	100

