version 3
run General-0-20230705-04:34:23-6036
attr configname General
attr datetime 20230705-04:34:23
attr datetimef 20230705-043423
attr experiment General
attr inifile omnetpp.ini
attr iterationvars ""
attr iterationvarsd ""
attr iterationvarsf ""
attr measurement ""
attr network Spoofing
attr processid 6036
attr repetition 0
attr replication #0
attr resultdir results
attr runnumber 0
attr seedset 0
config image-path ../../images:../../../inet4.4/images:../../../veins-veins-5.2/images
config network Spoofing
config sim-time-limit 400s
config debug-on-errors true
config cmdenv-express-mode true
config image-path ../../../../images
config *.playgroundSizeX 2500m
config *.playgroundSizeY 2500m
config *.playgroundSizeZ 50m
config *.annotations.draw true
config *.manager.updateInterval 1s
config *.manager.host "\"localhost\""
config *.manager.port 9999
config *.manager.autoShutdown true
config *.manager.launchConfig "xmldoc(\"unb.launchd.xml\")"
config *.manager.moduleType "\"spoofing.veins_inet.VeinsInetCar\""
config *.node[*].numApps 1
config *.node[0].app[0].typename spoofing.veins_inet.Attack
config *.node[1..12].app[0].typename spoofing.veins_inet.VeinsInetSampleApplication
config *.node[*].app[0].interface "\"wlan0\""
config *.node[*].wlan[0].opMode "\"p\""
config *.node[*].wlan[0].radio.typename Ieee80211DimensionalRadio
config *.node[*].wlan[0].radio.bandName "\"5.9 GHz\""
config *.node[*].wlan[0].radio.channelNumber 3
config *.node[*].wlan[0].radio.transmitter.power 20mW
config *.node[*].wlan[0].radio.bandwidth "10 MHz"
config *.node[*].wlan[*].radio.antenna.mobility.typename AttachedMobility
config *.node[*].wlan[*].radio.antenna.mobility.mobilityModule "\"^.^.^.^.mobility\""
config *.node[*].wlan[*].radio.antenna.mobility.offsetX -2.5m
config *.node[*].wlan[*].radio.antenna.mobility.offsetZ 1.5m
config *.node[*].wlan[*].radio.antenna.mobility.constraintAreaMinX 0m
config *.node[*].wlan[*].radio.antenna.mobility.constraintAreaMaxX 0m
config *.node[*].wlan[*].radio.antenna.mobility.constraintAreaMinY 0m
config *.node[*].wlan[*].radio.antenna.mobility.constraintAreaMaxY 0m
config *.node[*].wlan[*].radio.antenna.mobility.constraintAreaMinZ 0m
config *.node[*].wlan[*].radio.antenna.mobility.constraintAreaMaxZ 0m
config *.node[*].ipv4.configurator.typename HostAutoConfigurator
config *.node[*].ipv4.configurator.interfaces "\"wlan0\""
config *.node[*].ipv4.configurator.mcastGroups "\"224.0.0.1\""
config *.node[*].mobility.typename VeinsInetMobility
config *.radioMedium.obstacleLoss.typename IdealObstacleLoss
config **.vector-recording true

par Spoofing.node[7].radioIn[0].channel typename "\"ned.IdealChannel\""
par Spoofing.node[7].mobility typename "\"spoofing.veins_inet.VeinsInetMobility\""
par Spoofing.node[7].mobility subjectModule "\"^\""
par Spoofing.node[7].mobility coordinateSystemModule "\"\""
par Spoofing.node[7].mobility displayStringTextFormat "\"p: %p\\nv: %v\""
attr mutable ""
par Spoofing.node[7].mobility updateDisplayString true
par Spoofing.node[7].mobility constraintAreaMinX "-inf m"
attr unit m
par Spoofing.node[7].mobility constraintAreaMinY "-inf m"
attr unit m
par Spoofing.node[7].mobility constraintAreaMinZ "-inf m"
attr unit m
par Spoofing.node[7].mobility constraintAreaMaxX "inf m"
attr unit m
par Spoofing.node[7].mobility constraintAreaMaxY "inf m"
attr unit m
par Spoofing.node[7].mobility constraintAreaMaxZ "inf m"
attr unit m
par Spoofing.node[7].mobility initFromDisplayString true
par Spoofing.node[7].interfaceTable typename "\"inet.networklayer.common.InterfaceTable\""
par Spoofing.node[7].interfaceTable displayAddresses false
par Spoofing.node[7].cb typename "\"inet.common.MessageDispatcher\""
par Spoofing.node[7].cb displayStringTextFormat "\"processed %p pk (%l)\""
par Spoofing.node[7].cb forwardServiceRegistration true
par Spoofing.node[7].cb forwardProtocolRegistration true
par Spoofing.node[7].bl typename "\"inet.common.MessageDispatcher\""
par Spoofing.node[7].bl displayStringTextFormat "\"processed %p pk (%l)\""
par Spoofing.node[7].bl forwardServiceRegistration true
par Spoofing.node[7].bl forwardProtocolRegistration true
par Spoofing.node[7].li typename "\"inet.common.MessageDispatcher\""
par Spoofing.node[7].li displayStringTextFormat "\"processed %p pk (%l)\""
par Spoofing.node[7].li forwardServiceRegistration true
par Spoofing.node[7].li forwardProtocolRegistration true
par Spoofing.node[7].lo[0].upperLayerIn.channel typename "\"ned.IdealChannel\""
par Spoofing.node[7].lo[0].lo.upperLayerOut.channel typename "\"ned.IdealChannel\""
par Spoofing.node[7].lo[0].lo typename "\"inet.linklayer.loopback.Loopback\""
par Spoofing.node[7].lo[0].lo interfaceTableModule "\"Spoofing.node[7].interfaceTable\""
par Spoofing.node[7].lo[0].lo mtu 4470B
attr unit B
scalar Spoofing.node[7].lo[0].lo rcvdPkFromHl:count 1
attr interpolationmode none
attr recordingmode count
attr source packetReceivedFromUpper
attr title "packets received from higher layer, count"
scalar Spoofing.node[7].lo[0].lo rcvdPkFromHl:sum(packetBytes) 128
attr interpolationmode none
attr recordingmode sum(packetBytes)
attr source packetReceivedFromUpper
attr title "packets received from higher layer, sum(packetBytes)"
scalar Spoofing.node[7].lo[0].lo passedUpPk:count 1
attr interpolationmode none
attr recordingmode count
attr source packetSentToUpper
attr title "packets passed to higher layer, count"
scalar Spoofing.node[7].lo[0].lo passedUpPk:sum(packetBytes) 128
attr interpolationmode none
attr recordingmode sum(packetBytes)
attr source packetSentToUpper
attr title "packets passed to higher layer, sum(packetBytes)"
par Spoofing.node[7].lo[0] typename "\"inet.linklayer.loopback.LoopbackInterface\""
par Spoofing.node[7].lo[0] displayStringTextFormat "\"%a (%i)\\n%m\""
par Spoofing.node[7].lo[0] recordPcap false
par Spoofing.node[7].lo[0] numPcapRecorders 0
par Spoofing.node[7].lo[0] interfaceTableModule "\"Spoofing.node[7].interfaceTable\""
scalar Spoofing.node[7].lo[0] packetDropInterfaceDown:count 0
attr interpolationmode none
attr recordingmode count
attr source packetDropReasonIsInterfaceDown(packetDropped)
attr title "packet drops: interface down, count"
scalar Spoofing.node[7].lo[0] packetDropInterfaceDown:sum(packetBytes) 0
attr interpolationmode none
attr recordingmode sum(packetBytes)
attr source packetDropReasonIsInterfaceDown(packetDropped)
attr title "packet drops: interface down, sum(packetBytes)"
scalar Spoofing.node[7].lo[0] packetDropNoCarrier:count 0
attr interpolationmode none
attr recordingmode count
attr source packetDropReasonIsNoCarrier(packetDropped)
attr title "packet drops: no carrier, count"
scalar Spoofing.node[7].lo[0] packetDropNoCarrier:sum(packetBytes) 0
attr interpolationmode none
attr recordingmode sum(packetBytes)
attr source packetDropReasonIsNoCarrier(packetDropped)
attr title "packet drops: no carrier, sum(packetBytes)"
par Spoofing.node[7].wlan[0].radioIn.channel typename "\"ned.IdealChannel\""
par Spoofing.node[7].wlan[0].llc.upperLayerOut.channel typename "\"ned.IdealChannel\""
par Spoofing.node[7].wlan[0].upperLayerIn.channel typename "\"ned.IdealChannel\""
par Spoofing.node[7].wlan[0].mib typename "\"inet.linklayer.ieee80211.mib.Ieee80211Mib\""
par Spoofing.node[7].wlan[0].llc typename "\"inet.linklayer.ieee80211.llc.Ieee80211LlcEpd\""
par Spoofing.node[7].wlan[0].mgmt typename "\"inet.linklayer.ieee80211.mgmt.Ieee80211MgmtAdhoc\""
par Spoofing.node[7].wlan[0].mgmt mibModule "\"Spoofing.node[7].wlan[0].mib\""
par Spoofing.node[7].wlan[0].mgmt macModule "\"Spoofing.node[7].wlan[0].mac\""
par Spoofing.node[7].wlan[0].mgmt interfaceTableModule "\"Spoofing.node[7].interfaceTable\""
par Spoofing.node[7].wlan[0].mac.dcf.channelAccess.pendingQueue typename "\"inet.linklayer.ieee80211.mac.queue.PendingQueue\""
par Spoofing.node[7].wlan[0].mac.dcf.channelAccess.pendingQueue displayStringTextFormat "\"contains %p pk (%l) pushed %u\\npulled %o removed %r dropped %d\""
par Spoofing.node[7].wlan[0].mac.dcf.channelAccess.pendingQueue packetCapacity 100
par Spoofing.node[7].wlan[0].mac.dcf.channelAccess.pendingQueue dataCapacity -1b
attr unit b
par Spoofing.node[7].wlan[0].mac.dcf.channelAccess.pendingQueue dropperClass "\"inet::queueing::PacketAtCollectionEndDropper\""
par Spoofing.node[7].wlan[0].mac.dcf.channelAccess.pendingQueue comparatorClass "\"inet::ieee80211::MgmtOverDataComparator\""
par Spoofing.node[7].wlan[0].mac.dcf.channelAccess.pendingQueue bufferModule "\"\""
scalar Spoofing.node[7].wlan[0].mac.dcf.channelAccess.pendingQueue queueLength:last 0
attr autoWarmupFilter false
attr interpolationmode sample-hold
attr recordingmode last
attr source "warmup(atomic(constant0(packetPushEnded) + count(packetPushStarted) - count(packetPulled) - count(packetRemoved) - count(packetDropped)))"
attr title "queue length, last"
attr unit pk
scalar Spoofing.node[7].wlan[0].mac.dcf.channelAccess.pendingQueue queueLength:max 1
attr autoWarmupFilter false
attr interpolationmode sample-hold
attr recordingmode max
attr source "warmup(atomic(constant0(packetPushEnded) + count(packetPushStarted) - count(packetPulled) - count(packetRemoved) - count(packetDropped)))"
attr title "queue length, max"
attr unit pk
scalar Spoofing.node[7].wlan[0].mac.dcf.channelAccess.pendingQueue queueLength:timeavg 5.0355016331553e-07
attr autoWarmupFilter false
attr interpolationmode sample-hold
attr recordingmode timeavg
attr source "warmup(atomic(constant0(packetPushEnded) + count(packetPushStarted) - count(packetPulled) - count(packetRemoved) - count(packetDropped)))"
attr title "queue length, timeavg"
attr unit pk
scalar Spoofing.node[7].wlan[0].mac.dcf.channelAccess.pendingQueue queueBitLength:last 0
attr autoWarmupFilter false
attr interpolationmode sample-hold
attr recordingmode last
attr source "warmup(atomic(constant0(packetPushEnded) + sum(packetLength(packetPushStarted)) - sum(packetLength(packetPulled)) - sum(packetLength(packetRemoved)) - sum(packetLength(packetDropped))))"
attr title "queue bit length, last"
attr unit b
scalar Spoofing.node[7].wlan[0].mac.dcf.channelAccess.pendingQueue queueBitLength:max 1264
attr autoWarmupFilter false
attr interpolationmode sample-hold
attr recordingmode max
attr source "warmup(atomic(constant0(packetPushEnded) + sum(packetLength(packetPushStarted)) - sum(packetLength(packetPulled)) - sum(packetLength(packetRemoved)) - sum(packetLength(packetDropped))))"
attr title "queue bit length, max"
attr unit b
scalar Spoofing.node[7].wlan[0].mac.dcf.channelAccess.pendingQueue queueBitLength:timeavg 0.00063648740643083
attr autoWarmupFilter false
attr interpolationmode sample-hold
attr recordingmode timeavg
attr source "warmup(atomic(constant0(packetPushEnded) + sum(packetLength(packetPushStarted)) - sum(packetLength(packetPulled)) - sum(packetLength(packetRemoved)) - sum(packetLength(packetDropped))))"
attr title "queue bit length, timeavg"
attr unit b
statistic Spoofing.node[7].wlan[0].mac.dcf.channelAccess.pendingQueue queueingTime:histogram
field count 1
field mean 7.1e-05
field stddev nan
field min 7.1e-05
field max 7.1e-05
field sum 7.1e-05
field sqrsum 5.041e-09
attr interpolationmode none
attr recordingmode histogram
attr source queueingTime(packetPulled)
attr title "queueing times"
attr unit s
bin	-inf	0
bin	0	1
bin	0.01	0
bin	0.02	0
bin	0.03	0
bin	0.04	0
bin	0.05	0
bin	0.06	0
bin	0.07	0
bin	0.08	0
bin	0.09	0
bin	0.1	0
bin	0.11	0
bin	0.12	0
bin	0.13	0
bin	0.14	0
bin	0.15	0
bin	0.16	0
bin	0.17	0
bin	0.18	0
bin	0.19	0
bin	0.2	0
bin	0.21	0
bin	0.22	0
bin	0.23	0
bin	0.24	0
bin	0.25	0
bin	0.26	0
bin	0.27	0
bin	0.28	0
bin	0.29	0
bin	0.3	0
bin	0.31	0
bin	0.32	0
bin	0.33	0
bin	0.34	0
bin	0.35	0
bin	0.36	0
bin	0.37	0
bin	0.38	0
bin	0.39	0
bin	0.4	0
bin	0.41	0
bin	0.42	0
bin	0.43	0
bin	0.44	0
bin	0.45	0
bin	0.46	0
bin	0.47	0
bin	0.48	0
bin	0.49	0
bin	0.5	0
bin	0.51	0
scalar Spoofing.node[7].wlan[0].mac.dcf.channelAccess.pendingQueue outgoingPackets:count 1
attr recordingmode count
attr source packetPulled
attr title "outgoing packets, count"
attr unit pk
scalar Spoofing.node[7].wlan[0].mac.dcf.channelAccess.pendingQueue outgoingPacketLengths:sum 1264
attr interpolationmode none
attr recordingmode sum
attr source packetLength(packetPulled)
attr title "outgoing packet lengths, sum"
attr unit b
statistic Spoofing.node[7].wlan[0].mac.dcf.channelAccess.pendingQueue outgoingPacketLengths:histogram
field count 1
field mean 1264
field stddev nan
field min 1264
field max 1264
field sum 1264
field sqrsum 1597696
attr interpolationmode none
attr recordingmode histogram
attr source packetLength(packetPulled)
attr title "outgoing packet lengths"
attr unit b
bin	-inf	0
bin	1263	0
bin	1264	1
bin	1265	0
statistic Spoofing.node[7].wlan[0].mac.dcf.channelAccess.pendingQueue flowQueueingTime:histogram
field count 0
field mean -nan
field stddev nan
field min nan
field max nan
field sum 0
field sqrsum 0
attr interpolationmode none
attr recordingmode histogram
attr source queueingTime(demuxFlow(packetPulled))
attr title "flow queueing times"
attr unit s
bin	-inf	0
bin	0	0
bin	1	0
scalar Spoofing.node[7].wlan[0].mac.dcf.channelAccess.pendingQueue incomingPackets:count 1
attr recordingmode count
attr source packetPushStarted
attr title "incoming packets, count"
attr unit pk
scalar Spoofing.node[7].wlan[0].mac.dcf.channelAccess.pendingQueue incomingPacketLengths:sum 1264
attr interpolationmode none
attr recordingmode sum
attr source packetLength(packetPushStarted)
attr title "incoming packet lengths, sum"
attr unit b
statistic Spoofing.node[7].wlan[0].mac.dcf.channelAccess.pendingQueue incomingPacketLengths:histogram
field count 1
field mean 1264
field stddev nan
field min 1264
field max 1264
field sum 1264
field sqrsum 1597696
attr interpolationmode none
attr recordingmode histogram
attr source packetLength(packetPushStarted)
attr title "incoming packet lengths"
attr unit b
bin	-inf	0
bin	1263	0
bin	1264	1
bin	1265	0
scalar Spoofing.node[7].wlan[0].mac.dcf.channelAccess.pendingQueue droppedPacketsQueueOverflow:count 0
attr interpolationmode none
attr recordingmode count
attr source packetDropReasonIsQueueOverflow(packetDropped)
attr title "dropped packets: queue overflow, count"
attr unit pk
scalar Spoofing.node[7].wlan[0].mac.dcf.channelAccess.pendingQueue droppedPacketLengthsQueueOverflow:sum 0
attr interpolationmode none
attr recordingmode sum
attr source packetLength(packetDropReasonIsQueueOverflow(packetDropped))
attr title "dropped packet lengths: queue overflow, sum"
attr unit b
par Spoofing.node[7].wlan[0].mac.dcf.channelAccess.inProgressFrames typename "\"inet.linklayer.ieee80211.mac.queue.InProgressFrames\""
par Spoofing.node[7].wlan[0].mac.dcf.channelAccess.inProgressFrames pendingQueueModule "\"^.pendingQueue\""
par Spoofing.node[7].wlan[0].mac.dcf.channelAccess.inProgressFrames originatorMacDataServiceModule "\"^.^.originatorMacDataService\""
par Spoofing.node[7].wlan[0].mac.dcf.channelAccess.inProgressFrames ackHandlerModule "\"^.^.ackHandler\""
statistic Spoofing.node[7].wlan[0].mac.dcf.channelAccess.inProgressFrames queueingTime:histogram
field count 1
field mean 0.000152
field stddev nan
field min 0.000152
field max 0.000152
field sum 0.000152
field sqrsum 2.3104e-08
attr interpolationmode none
attr recordingmode histogram
attr source queueingTime(packetDequeued)
attr title "queueing times"
bin	-inf	0
bin	0	1
bin	0.01	0
bin	0.02	0
bin	0.03	0
bin	0.04	0
bin	0.05	0
bin	0.06	0
bin	0.07	0
bin	0.08	0
bin	0.09	0
bin	0.1	0
bin	0.11	0
bin	0.12	0
bin	0.13	0
bin	0.14	0
bin	0.15	0
bin	0.16	0
bin	0.17	0
bin	0.18	0
bin	0.19	0
bin	0.2	0
bin	0.21	0
bin	0.22	0
bin	0.23	0
bin	0.24	0
bin	0.25	0
bin	0.26	0
bin	0.27	0
bin	0.28	0
bin	0.29	0
bin	0.3	0
bin	0.31	0
bin	0.32	0
bin	0.33	0
bin	0.34	0
bin	0.35	0
bin	0.36	0
bin	0.37	0
bin	0.38	0
bin	0.39	0
bin	0.4	0
bin	0.41	0
bin	0.42	0
bin	0.43	0
bin	0.44	0
bin	0.45	0
bin	0.46	0
bin	0.47	0
bin	0.48	0
bin	0.49	0
bin	0.5	0
bin	0.51	0
scalar Spoofing.node[7].wlan[0].mac.dcf.channelAccess.inProgressFrames queueLength:max 1
attr autoWarmupFilter false
attr interpolationmode sample-hold
attr recordingmode max
attr source "warmup(count(packetEnqueued) - count(packetDequeued))"
attr title "queue length, max"
scalar Spoofing.node[7].wlan[0].mac.dcf.channelAccess.inProgressFrames queueLength:timeavg 7.6e-07
attr autoWarmupFilter false
attr interpolationmode sample-hold
attr recordingmode timeavg
attr source "warmup(count(packetEnqueued) - count(packetDequeued))"
attr title "queue length, timeavg"
par Spoofing.node[7].wlan[0].mac.dcf.channelAccess.contention typename "\"inet.linklayer.ieee80211.mac.contention.Contention\""
par Spoofing.node[7].wlan[0].mac.dcf.channelAccess.contention initialChannelBusy true
par Spoofing.node[7].wlan[0].mac.dcf.channelAccess.contention backoffOptimization true
scalar Spoofing.node[7].wlan[0].mac.dcf.channelAccess.contention channelAccessGranted:count 1
attr recordingmode count
attr title "channel access granted, count"
scalar Spoofing.node[7].wlan[0].mac.dcf.channelAccess.contention stateChanged:count 32
attr enum IDLE,DEFER,IFS_AND_BACKOFF
attr interpolationmode none
attr recordingmode count
attr title "contention state changed, count"
attr type enum
par Spoofing.node[7].wlan[0].mac.dcf.channelAccess typename "\"inet.linklayer.ieee80211.mac.channelaccess.Dcaf\""
par Spoofing.node[7].wlan[0].mac.dcf.channelAccess difsn -1
par Spoofing.node[7].wlan[0].mac.dcf.channelAccess cwMin -1
par Spoofing.node[7].wlan[0].mac.dcf.channelAccess cwMax -1
par Spoofing.node[7].wlan[0].mac.dcf.channelAccess rxModule "\"^.^.rx\""
scalar Spoofing.node[7].wlan[0].mac.dcf.channelAccess channelOwnershipChanged:count 2
attr interpolationmode sample-hold
attr recordingmode count
attr title "channel ownership, count"
par Spoofing.node[7].wlan[0].mac.dcf.originatorMacDataService.fragmentationPolicy typename "\"inet.linklayer.ieee80211.mac.fragmentation.BasicFragmentationPolicy\""
par Spoofing.node[7].wlan[0].mac.dcf.originatorMacDataService.fragmentationPolicy fragmentationThreshold 1500B
attr unit B
par Spoofing.node[7].wlan[0].mac.dcf.originatorMacDataService typename "\"inet.linklayer.ieee80211.mac.originator.OriginatorMacDataService\""
scalar Spoofing.node[7].wlan[0].mac.dcf.originatorMacDataService packetAggregated:count 0
attr recordingmode count
attr title "packets aggregated, count"
scalar Spoofing.node[7].wlan[0].mac.dcf.originatorMacDataService packetFragmented:count 0
attr recordingmode count
attr title "packets fragmented, count"
par Spoofing.node[7].wlan[0].mac.dcf.recipientMacDataService typename "\"inet.linklayer.ieee80211.mac.recipient.RecipientMacDataService\""
scalar Spoofing.node[7].wlan[0].mac.dcf.recipientMacDataService packetDeaggregated:count 0
attr recordingmode count
attr title "packets deaggregated, count"
scalar Spoofing.node[7].wlan[0].mac.dcf.recipientMacDataService packetDefragmented:count 4
attr recordingmode count
attr title "packets defragmented, count"
scalar Spoofing.node[7].wlan[0].mac.dcf.recipientMacDataService packetDropDuplicateDetected:count 0
attr interpolationmode none
attr recordingmode count
attr source packetDropReasonIsDuplicateDetected(packetDropped)
attr title "packet drops: duplicate detected, count"
scalar Spoofing.node[7].wlan[0].mac.dcf.recipientMacDataService packetDropDuplicateDetected:sum(packetBytes) 0
attr interpolationmode none
attr recordingmode sum(packetBytes)
attr source packetDropReasonIsDuplicateDetected(packetDropped)
attr title "packet drops: duplicate detected, sum(packetBytes)"
par Spoofing.node[7].wlan[0].mac.dcf.rateSelection typename "\"inet.linklayer.ieee80211.mac.rateselection.RateSelection\""
par Spoofing.node[7].wlan[0].mac.dcf.rateSelection rateControlModule "\"^.rateControl\""
par Spoofing.node[7].wlan[0].mac.dcf.rateSelection multicastFrameBitrate -1bps
attr unit bps
par Spoofing.node[7].wlan[0].mac.dcf.rateSelection responseAckFrameBitrate -1bps
attr unit bps
par Spoofing.node[7].wlan[0].mac.dcf.rateSelection responseCtsFrameBitrate -1bps
attr unit bps
par Spoofing.node[7].wlan[0].mac.dcf.rateSelection dataFrameBitrate -1bps
attr unit bps
par Spoofing.node[7].wlan[0].mac.dcf.rateSelection dataFrameBandwidth "nan Hz"
attr unit Hz
par Spoofing.node[7].wlan[0].mac.dcf.rateSelection dataFrameNumSpatialStreams -1
par Spoofing.node[7].wlan[0].mac.dcf.rateSelection mgmtFrameBitrate -1bps
attr unit bps
par Spoofing.node[7].wlan[0].mac.dcf.rateSelection controlFrameBitrate -1bps
attr unit bps
par Spoofing.node[7].wlan[0].mac.dcf.recoveryProcedure typename "\"inet.linklayer.ieee80211.mac.originator.NonQosRecoveryProcedure\""
par Spoofing.node[7].wlan[0].mac.dcf.recoveryProcedure cwCalculatorModule "\"^.channelAccess\""
par Spoofing.node[7].wlan[0].mac.dcf.recoveryProcedure rtsPolicyModule "\"^.rtsPolicy\""
par Spoofing.node[7].wlan[0].mac.dcf.recoveryProcedure shortRetryLimit 7
par Spoofing.node[7].wlan[0].mac.dcf.recoveryProcedure longRetryLimit 4
scalar Spoofing.node[7].wlan[0].mac.dcf.recoveryProcedure retryLimitReached:count 0
attr recordingmode count
attr title "retry limit reached, count"
par Spoofing.node[7].wlan[0].mac.dcf.originatorProtectionMechanism typename "\"inet.linklayer.ieee80211.mac.protectionmechanism.OriginatorProtectionMechanism\""
par Spoofing.node[7].wlan[0].mac.dcf.originatorProtectionMechanism rateSelectionModule "\"^.rateSelection\""
par Spoofing.node[7].wlan[0].mac.dcf.ackHandler typename "\"inet.linklayer.ieee80211.mac.originator.AckHandler\""
par Spoofing.node[7].wlan[0].mac.dcf.originatorAckPolicy typename "\"inet.linklayer.ieee80211.mac.originator.OriginatorAckPolicy\""
par Spoofing.node[7].wlan[0].mac.dcf.originatorAckPolicy rateSelectionModule "\"^.rateSelection\""
par Spoofing.node[7].wlan[0].mac.dcf.originatorAckPolicy ackTimeout -1s
attr unit s
par Spoofing.node[7].wlan[0].mac.dcf.recipientAckPolicy typename "\"inet.linklayer.ieee80211.mac.recipient.RecipientAckPolicy\""
par Spoofing.node[7].wlan[0].mac.dcf.recipientAckPolicy rateSelectionModule "\"^.rateSelection\""
par Spoofing.node[7].wlan[0].mac.dcf.rtsPolicy typename "\"inet.linklayer.ieee80211.mac.originator.RtsPolicy\""
par Spoofing.node[7].wlan[0].mac.dcf.rtsPolicy rateSelectionModule "\"^.rateSelection\""
par Spoofing.node[7].wlan[0].mac.dcf.rtsPolicy ctsTimeout -1s
attr unit s
par Spoofing.node[7].wlan[0].mac.dcf.rtsPolicy rtsThreshold 2346B
attr unit B
par Spoofing.node[7].wlan[0].mac.dcf.ctsPolicy typename "\"inet.linklayer.ieee80211.mac.recipient.CtsPolicy\""
par Spoofing.node[7].wlan[0].mac.dcf.ctsPolicy rxModule "\"^.^.rx\""
par Spoofing.node[7].wlan[0].mac.dcf.ctsPolicy rateSelectionModule "\"^.rateSelection\""
par Spoofing.node[7].wlan[0].mac.dcf typename "\"inet.linklayer.ieee80211.mac.coordinationfunction.Dcf\""
par Spoofing.node[7].wlan[0].mac.dcf rxModule "\"^.rx\""
par Spoofing.node[7].wlan[0].mac.dcf txModule "\"^.tx\""
scalar Spoofing.node[7].wlan[0].mac.dcf frameSequenceFinished:count 1
attr recordingmode count
attr title "finished frame sequences, count"
statistic Spoofing.node[7].wlan[0].mac.dcf frameSequenceDuration:histogram
field count 1
field mean 0.000152
field stddev nan
field min 0.000152
field max 0.000152
field sum 0.000152
field sqrsum 2.3104e-08
attr recordingmode histogram
attr source frameSequenceDuration(frameSequenceFinished)
attr title "frame sequence durations"
bin	-inf	0
bin	0	1
bin	0.01	0
bin	0.02	0
bin	0.03	0
bin	0.04	0
bin	0.05	0
bin	0.06	0
bin	0.07	0
bin	0.08	0
bin	0.09	0
bin	0.1	0
bin	0.11	0
bin	0.12	0
bin	0.13	0
bin	0.14	0
bin	0.15	0
bin	0.16	0
bin	0.17	0
bin	0.18	0
bin	0.19	0
bin	0.2	0
bin	0.21	0
bin	0.22	0
bin	0.23	0
bin	0.24	0
bin	0.25	0
bin	0.26	0
bin	0.27	0
bin	0.28	0
bin	0.29	0
bin	0.3	0
bin	0.31	0
bin	0.32	0
bin	0.33	0
bin	0.34	0
bin	0.35	0
bin	0.36	0
bin	0.37	0
bin	0.38	0
bin	0.39	0
bin	0.4	0
bin	0.41	0
bin	0.42	0
bin	0.43	0
bin	0.44	0
bin	0.45	0
bin	0.46	0
bin	0.47	0
bin	0.48	0
bin	0.49	0
bin	0.5	0
bin	0.51	0
statistic Spoofing.node[7].wlan[0].mac.dcf frameSequenceNumPackets:histogram
field count 1
field mean 1
field stddev nan
field min 1
field max 1
field sum 1
field sqrsum 1
attr recordingmode histogram
attr source frameSequenceNumPackets(frameSequenceFinished)
attr title "frame sequences: number of packets"
bin	-inf	0
bin	0	0
bin	1	1
bin	2	0
scalar Spoofing.node[7].wlan[0].mac.dcf packetReceivedFromPeer:count 4
attr interpolationmode none
attr recordingmode count
attr title "packets received, count"
scalar Spoofing.node[7].wlan[0].mac.dcf packetReceivedFromPeer:sum(packetBytes) 632
attr interpolationmode none
attr recordingmode sum(packetBytes)
attr title "packets received, sum(packetBytes)"
scalar Spoofing.node[7].wlan[0].mac.dcf packetReceivedFromPeerUnicast:count 0
attr interpolationmode none
attr recordingmode count
attr source ieee80211Unicast(packetReceivedFromPeer)
attr title "packets received: unicast, count"
scalar Spoofing.node[7].wlan[0].mac.dcf packetReceivedFromPeerUnicast:sum(packetBytes) 0
attr interpolationmode none
attr recordingmode sum(packetBytes)
attr source ieee80211Unicast(packetReceivedFromPeer)
attr title "packets received: unicast, sum(packetBytes)"
scalar Spoofing.node[7].wlan[0].mac.dcf packetReceivedFromPeerMulticast:count 4
attr interpolationmode none
attr recordingmode count
attr source ieee80211Multicast(packetReceivedFromPeer)
attr title "packets received: multicast, count"
scalar Spoofing.node[7].wlan[0].mac.dcf packetReceivedFromPeerMulticast:sum(packetBytes) 632
attr interpolationmode none
attr recordingmode sum(packetBytes)
attr source ieee80211Multicast(packetReceivedFromPeer)
attr title "packets received: multicast, sum(packetBytes)"
scalar Spoofing.node[7].wlan[0].mac.dcf packetReceivedFromPeerBroadcast:count 0
attr interpolationmode none
attr recordingmode count
attr source ieee80211Broadcast(packetReceivedFromPeer)
attr title "packets received: broadcast, count"
scalar Spoofing.node[7].wlan[0].mac.dcf packetReceivedFromPeerBroadcast:sum(packetBytes) 0
attr interpolationmode none
attr recordingmode sum(packetBytes)
attr source ieee80211Broadcast(packetReceivedFromPeer)
attr title "packets received: broadcast, sum(packetBytes)"
scalar Spoofing.node[7].wlan[0].mac.dcf packetReceivedFromPeerWithRetry:count 0
attr interpolationmode none
attr recordingmode count
attr source ieee80211Retry(packetReceivedFromPeer)
attr title "packets received: with retry, count"
scalar Spoofing.node[7].wlan[0].mac.dcf packetReceivedFromPeerWithRetry:sum(packetBytes) 0
attr interpolationmode none
attr recordingmode sum(packetBytes)
attr source ieee80211Retry(packetReceivedFromPeer)
attr title "packets received: with retry, sum(packetBytes)"
scalar Spoofing.node[7].wlan[0].mac.dcf packetReceivedFromPeerWithoutRetry:count 4
attr interpolationmode none
attr recordingmode count
attr source ieee80211NotRetry(packetReceivedFromPeer)
attr title "packets received: without retry, count"
scalar Spoofing.node[7].wlan[0].mac.dcf packetReceivedFromPeerWithoutRetry:sum(packetBytes) 632
attr interpolationmode none
attr recordingmode sum(packetBytes)
attr source ieee80211NotRetry(packetReceivedFromPeer)
attr title "packets received: without retry, sum(packetBytes)"
scalar Spoofing.node[7].wlan[0].mac.dcf packetSentToPeer:count 1
attr interpolationmode none
attr recordingmode count
attr title "packets sent, count"
scalar Spoofing.node[7].wlan[0].mac.dcf packetSentToPeer:sum(packetBytes) 158
attr interpolationmode none
attr recordingmode sum(packetBytes)
attr title "packets sent, sum(packetBytes)"
scalar Spoofing.node[7].wlan[0].mac.dcf packetSentToPeerUnicast:count 0
attr interpolationmode none
attr recordingmode count
attr source ieee80211Unicast(packetSentToPeer)
attr title "packets sent: unicast, count"
scalar Spoofing.node[7].wlan[0].mac.dcf packetSentToPeerUnicast:sum(packetBytes) 0
attr interpolationmode none
attr recordingmode sum(packetBytes)
attr source ieee80211Unicast(packetSentToPeer)
attr title "packets sent: unicast, sum(packetBytes)"
scalar Spoofing.node[7].wlan[0].mac.dcf packetSentToPeerMulticast:count 1
attr interpolationmode none
attr recordingmode count
attr source ieee80211Multicast(packetSentToPeer)
attr title "packets sent: multicast, count"
scalar Spoofing.node[7].wlan[0].mac.dcf packetSentToPeerMulticast:sum(packetBytes) 158
attr interpolationmode none
attr recordingmode sum(packetBytes)
attr source ieee80211Multicast(packetSentToPeer)
attr title "packets sent: multicast, sum(packetBytes)"
scalar Spoofing.node[7].wlan[0].mac.dcf packetSentToPeerBroadcast:count 0
attr interpolationmode none
attr recordingmode count
attr source ieee80211Broadcast(packetSentToPeer)
attr title "packets sent: broadcast , count"
scalar Spoofing.node[7].wlan[0].mac.dcf packetSentToPeerBroadcast:sum(packetBytes) 0
attr interpolationmode none
attr recordingmode sum(packetBytes)
attr source ieee80211Broadcast(packetSentToPeer)
attr title "packets sent: broadcast , sum(packetBytes)"
scalar Spoofing.node[7].wlan[0].mac.dcf packetSentToPeerWithRetry:count 0
attr interpolationmode none
attr recordingmode count
attr source ieee80211Retry(packetSentToPeer)
attr title "packets sent: with retry, count"
scalar Spoofing.node[7].wlan[0].mac.dcf packetSentToPeerWithRetry:sum(packetBytes) 0
attr interpolationmode none
attr recordingmode sum(packetBytes)
attr source ieee80211Retry(packetSentToPeer)
attr title "packets sent: with retry, sum(packetBytes)"
scalar Spoofing.node[7].wlan[0].mac.dcf packetSentToPeerWithoutRetry:count 1
attr interpolationmode none
attr recordingmode count
attr source ieee80211NotRetry(packetSentToPeer)
attr title "packets sent: without retry, count"
scalar Spoofing.node[7].wlan[0].mac.dcf packetSentToPeerWithoutRetry:sum(packetBytes) 158
attr interpolationmode none
attr recordingmode sum(packetBytes)
attr source ieee80211NotRetry(packetSentToPeer)
attr title "packets sent: without retry, sum(packetBytes)"
scalar Spoofing.node[7].wlan[0].mac.dcf packetDrop:count 0
attr interpolationmode none
attr recordingmode count
attr source packetDropped
attr title "packet drops, count"
scalar Spoofing.node[7].wlan[0].mac.dcf packetDrop:sum(packetBytes) 0
attr interpolationmode none
attr recordingmode sum(packetBytes)
attr source packetDropped
attr title "packet drops, sum(packetBytes)"
scalar Spoofing.node[7].wlan[0].mac.dcf packetDropNotAddressedToUs:count 0
attr interpolationmode none
attr recordingmode count
attr source packetDropReasonIsNotAddressedToUs(packetDropped)
attr title "packet drops: not addressed to us, count"
scalar Spoofing.node[7].wlan[0].mac.dcf packetDropNotAddressedToUs:sum(packetBytes) 0
attr interpolationmode none
attr recordingmode sum(packetBytes)
attr source packetDropReasonIsNotAddressedToUs(packetDropped)
attr title "packet drops: not addressed to us, sum(packetBytes)"
scalar Spoofing.node[7].wlan[0].mac.dcf packetDropQueueOverflow:count 0
attr interpolationmode none
attr recordingmode count
attr source packetDropReasonIsQueueOverflow(packetDropped)
attr title "packet drops: queue overflow, count"
scalar Spoofing.node[7].wlan[0].mac.dcf packetDropQueueOverflow:sum(packetBytes) 0
attr interpolationmode none
attr recordingmode sum(packetBytes)
attr source packetDropReasonIsQueueOverflow(packetDropped)
attr title "packet drops: queue overflow, sum(packetBytes)"
scalar Spoofing.node[7].wlan[0].mac.dcf packetDropRetryLimitReached:count 0
attr interpolationmode none
attr recordingmode count
attr source packetDropReasonIsRetryLimitReached(packetDropped)
attr title "packet drops: retry limit reached, count"
scalar Spoofing.node[7].wlan[0].mac.dcf packetDropRetryLimitReached:sum(packetBytes) 0
attr interpolationmode none
attr recordingmode sum(packetBytes)
attr source packetDropReasonIsRetryLimitReached(packetDropped)
attr title "packet drops: retry limit reached, sum(packetBytes)"
scalar Spoofing.node[7].wlan[0].mac.dcf linkBroken:count 0
attr interpolationmode none
attr recordingmode count
attr title "link breaks, count"
par Spoofing.node[7].wlan[0].mac.ds typename "\"inet.linklayer.ieee80211.mac.Ds\""
par Spoofing.node[7].wlan[0].mac.ds mibModule "\"Spoofing.node[7].wlan[0].mib\""
par Spoofing.node[7].wlan[0].mac.rx typename "\"inet.linklayer.ieee80211.mac.Rx\""
par Spoofing.node[7].wlan[0].mac.tx typename "\"inet.linklayer.ieee80211.mac.Tx\""
par Spoofing.node[7].wlan[0].mac.tx rxModule "\"^.rx\""
par Spoofing.node[7].wlan[0].mac typename "\"inet.linklayer.ieee80211.mac.Ieee80211Mac\""
par Spoofing.node[7].wlan[0].mac interfaceTableModule "\"Spoofing.node[7].interfaceTable\""
par Spoofing.node[7].wlan[0].mac mibModule "\"Spoofing.node[7].wlan[0].mib\""
par Spoofing.node[7].wlan[0].mac modeSet "\"p\""
attr enum a,b,g(erp),g(mixed),n(mixed-2.4Ghz),p,ac
par Spoofing.node[7].wlan[0].mac fcsMode "\"declared\""
attr enum declared,computed
par Spoofing.node[7].wlan[0].mac initialRadioMode "\"receiver\""
attr enum off,sleep,receiver,transmitter,transceiver
par Spoofing.node[7].wlan[0].mac mtu 2304B
attr unit B
par Spoofing.node[7].wlan[0].mac qosStation false
scalar Spoofing.node[7].wlan[0].mac packetReceivedFromLower:count 5
attr interpolationmode none
attr recordingmode count
attr title "packets received from lower layer, count"
scalar Spoofing.node[7].wlan[0].mac packetReceivedFromLower:sum(packetBytes) 790
attr interpolationmode none
attr recordingmode sum(packetBytes)
attr title "packets received from lower layer, sum(packetBytes)"
scalar Spoofing.node[7].wlan[0].mac packetSentToLower:count 1
attr interpolationmode none
attr recordingmode count
attr title "packets sent to lower layer, count"
scalar Spoofing.node[7].wlan[0].mac packetSentToLower:sum(packetBytes) 158
attr interpolationmode none
attr recordingmode sum(packetBytes)
attr title "packets sent to lower layer, sum(packetBytes)"
scalar Spoofing.node[7].wlan[0].mac packetReceivedFromUpper:count 1
attr interpolationmode none
attr recordingmode count
attr title "packets received from upper layer, count"
scalar Spoofing.node[7].wlan[0].mac packetReceivedFromUpper:sum(packetBytes) 130
attr interpolationmode none
attr recordingmode sum(packetBytes)
attr title "packets received from upper layer, sum(packetBytes)"
scalar Spoofing.node[7].wlan[0].mac packetSentToUpper:count 4
attr interpolationmode none
attr recordingmode count
attr title "packets sent to upper layer, count"
scalar Spoofing.node[7].wlan[0].mac packetSentToUpper:sum(packetBytes) 520
attr interpolationmode none
attr recordingmode sum(packetBytes)
attr title "packets sent to upper layer, sum(packetBytes)"
scalar Spoofing.node[7].wlan[0].mac packetDrop:count 1
attr interpolationmode none
attr recordingmode count
attr source packetDropped
attr title "packet drops, count"
scalar Spoofing.node[7].wlan[0].mac packetDrop:sum(packetBytes) 158
attr interpolationmode none
attr recordingmode sum(packetBytes)
attr source packetDropped
attr title "packet drops, sum(packetBytes)"
scalar Spoofing.node[7].wlan[0].mac packetDropIncorrectlyReceived:count 1
attr interpolationmode none
attr recordingmode count
attr source packetDropReasonIsIncorrectlyReceived(packetDropped)
attr title "packet drops: incorrectly received, count"
scalar Spoofing.node[7].wlan[0].mac packetDropIncorrectlyReceived:sum(packetBytes) 158
attr interpolationmode none
attr recordingmode sum(packetBytes)
attr source packetDropReasonIsIncorrectlyReceived(packetDropped)
attr title "packet drops: incorrectly received, sum(packetBytes)"
scalar Spoofing.node[7].wlan[0].mac packetDropNotAddressedToUs:count 0
attr interpolationmode none
attr recordingmode count
attr source packetDropReasonIsNotAddressedToUs(packetDropped)
attr title "packet drops: not addressed to us, count"
scalar Spoofing.node[7].wlan[0].mac packetDropNotAddressedToUs:sum(packetBytes) 0
attr interpolationmode none
attr recordingmode sum(packetBytes)
attr source packetDropReasonIsNotAddressedToUs(packetDropped)
attr title "packet drops: not addressed to us, sum(packetBytes)"
scalar Spoofing.node[7].wlan[0].mac packetDropQueueOverflow:count 0
attr interpolationmode none
attr recordingmode count
attr source packetDropReasonIsQueueOverflow(packetDropped)
attr title "packet drops: queue overflow, count"
scalar Spoofing.node[7].wlan[0].mac packetDropQueueOverflow:sum(packetBytes) 0
attr interpolationmode none
attr recordingmode sum(packetBytes)
attr source packetDropReasonIsQueueOverflow(packetDropped)
attr title "packet drops: queue overflow, sum(packetBytes)"
scalar Spoofing.node[7].wlan[0].mac packetDropRetryLimitReached:count 0
attr interpolationmode none
attr recordingmode count
attr source packetDropReasonIsRetryLimitReached(packetDropped)
attr title "packet drops: retry limit reached, count"
scalar Spoofing.node[7].wlan[0].mac packetDropRetryLimitReached:sum(packetBytes) 0
attr interpolationmode none
attr recordingmode sum(packetBytes)
attr source packetDropReasonIsRetryLimitReached(packetDropped)
attr title "packet drops: retry limit reached, sum(packetBytes)"
scalar Spoofing.node[7].wlan[0].mac packetDropDuplicateDetected:count 0
attr interpolationmode none
attr recordingmode count
attr source packetDropReasonIsDuplicateDetected(packetDropped)
attr title "packet drops: duplicate detected, count"
scalar Spoofing.node[7].wlan[0].mac packetDropDuplicateDetected:sum(packetBytes) 0
attr interpolationmode none
attr recordingmode sum(packetBytes)
attr source packetDropReasonIsDuplicateDetected(packetDropped)
attr title "packet drops: duplicate detected, sum(packetBytes)"
scalar Spoofing.node[7].wlan[0].mac packetDropOther:count 0
attr interpolationmode none
attr recordingmode count
attr source packetDropReasonIsOther(packetDropped)
attr title "packet drops: other, count"
scalar Spoofing.node[7].wlan[0].mac packetDropOther:sum(packetBytes) 0
attr interpolationmode none
attr recordingmode sum(packetBytes)
attr source packetDropReasonIsOther(packetDropped)
attr title "packet drops: other, sum(packetBytes)"
scalar Spoofing.node[7].wlan[0].mac linkBroken:count 0
attr interpolationmode none
attr recordingmode count
attr title "link breaks, count"
par Spoofing.node[7].wlan[0].radio.antenna.mobility typename "\"inet.mobility.single.AttachedMobility\""
par Spoofing.node[7].wlan[0].radio.antenna.mobility subjectModule "\"\""
par Spoofing.node[7].wlan[0].radio.antenna.mobility coordinateSystemModule "\"\""
par Spoofing.node[7].wlan[0].radio.antenna.mobility displayStringTextFormat "\"p: %p\\nv: %v\""
attr mutable ""
par Spoofing.node[7].wlan[0].radio.antenna.mobility updateDisplayString true
par Spoofing.node[7].wlan[0].radio.antenna.mobility constraintAreaMinX 0m
attr unit m
par Spoofing.node[7].wlan[0].radio.antenna.mobility constraintAreaMinY 0m
attr unit m
par Spoofing.node[7].wlan[0].radio.antenna.mobility constraintAreaMinZ 0m
attr unit m
par Spoofing.node[7].wlan[0].radio.antenna.mobility constraintAreaMaxX 0m
attr unit m
par Spoofing.node[7].wlan[0].radio.antenna.mobility constraintAreaMaxY 0m
attr unit m
par Spoofing.node[7].wlan[0].radio.antenna.mobility constraintAreaMaxZ 0m
attr unit m
par Spoofing.node[7].wlan[0].radio.antenna.mobility mobilityModule "\"^.^.^.^.mobility\""
par Spoofing.node[7].wlan[0].radio.antenna.mobility offsetX -2.5m
attr unit m
par Spoofing.node[7].wlan[0].radio.antenna.mobility offsetY 0m
attr unit m
par Spoofing.node[7].wlan[0].radio.antenna.mobility offsetZ 1.5m
attr unit m
par Spoofing.node[7].wlan[0].radio.antenna.mobility offsetHeading 0deg
attr unit deg
par Spoofing.node[7].wlan[0].radio.antenna.mobility offsetElevation 0deg
attr unit deg
par Spoofing.node[7].wlan[0].radio.antenna.mobility offsetBank 0deg
attr unit deg
par Spoofing.node[7].wlan[0].radio.antenna typename "\"inet.physicallayer.wireless.common.antenna.IsotropicAntenna\""
par Spoofing.node[7].wlan[0].radio.antenna mobilityModule "\"^.^.^.mobility\""
par Spoofing.node[7].wlan[0].radio.antenna numAntennas 1
par Spoofing.node[7].wlan[0].radio.transmitter typename "\"inet.physicallayer.wireless.ieee80211.packetlevel.Ieee80211DimensionalTransmitter\""
par Spoofing.node[7].wlan[0].radio.transmitter preambleDuration -1s
attr unit s
par Spoofing.node[7].wlan[0].radio.transmitter headerLength 192b
attr unit b
par Spoofing.node[7].wlan[0].radio.transmitter bitrate -1bps
attr unit bps
par Spoofing.node[7].wlan[0].radio.transmitter power 0.02W
attr unit W
par Spoofing.node[7].wlan[0].radio.transmitter centerFrequency 2.412e+09Hz
attr unit Hz
par Spoofing.node[7].wlan[0].radio.transmitter bandwidth 1e+07Hz
attr unit Hz
par Spoofing.node[7].wlan[0].radio.transmitter modulation "\"BPSK\""
par Spoofing.node[7].wlan[0].radio.transmitter gainFunctionCacheLimit 0
par Spoofing.node[7].wlan[0].radio.transmitter timeGains "\"left s 0dB either e 0dB right\""
par Spoofing.node[7].wlan[0].radio.transmitter timeGainsNormalization "\"\""
attr enum ,maximum,integral
par Spoofing.node[7].wlan[0].radio.transmitter frequencyGains "\"left s 0dB either e 0dB right\""
par Spoofing.node[7].wlan[0].radio.transmitter frequencyGainsNormalization "\"integral\""
attr enum ,maximum,integral
par Spoofing.node[7].wlan[0].radio.transmitter opMode "\"p\""
attr enum a,b,g(erp),g(mixed),n(mixed-2.4Ghz),p,ac
par Spoofing.node[7].wlan[0].radio.transmitter bandName "\"5.9 GHz\""
attr enum "2.4 GHz,5 GHz,5 GHz (20 MHz),5 GHz (40 MHz),5 GHz (80 MHz),5 GHz (160 MHz),5.9 GHz"
par Spoofing.node[7].wlan[0].radio.transmitter channelNumber 3
par Spoofing.node[7].wlan[0].radio.receiver.errorModel typename "\"inet.physicallayer.wireless.ieee80211.packetlevel.errormodel.Ieee80211NistErrorModel\""
par Spoofing.node[7].wlan[0].radio.receiver.errorModel corruptionMode "\"packet\""
attr enum packet,chunk,byte,bit
par Spoofing.node[7].wlan[0].radio.receiver.errorModel snirMode "\"min\""
attr unit min,mean
par Spoofing.node[7].wlan[0].radio.receiver.errorModel snirOffset 0dB
attr unit dB
par Spoofing.node[7].wlan[0].radio.receiver typename "\"inet.physicallayer.wireless.ieee80211.packetlevel.Ieee80211DimensionalReceiver\""
par Spoofing.node[7].wlan[0].radio.receiver snirThreshold 4dB
attr unit dB
par Spoofing.node[7].wlan[0].radio.receiver snirThresholdMode "\"min\""
attr unit min,mean
par Spoofing.node[7].wlan[0].radio.receiver energyDetection -85dBm
attr unit dBm
par Spoofing.node[7].wlan[0].radio.receiver sensitivity -85dBm
attr unit dBm
par Spoofing.node[7].wlan[0].radio.receiver centerFrequency 2.412e+09Hz
attr unit Hz
par Spoofing.node[7].wlan[0].radio.receiver bandwidth 2.2e+07Hz
attr unit Hz
par Spoofing.node[7].wlan[0].radio.receiver modulation "\"BPSK\""
par Spoofing.node[7].wlan[0].radio.receiver opMode "\"p\""
attr enum a,b,g(erp),g(mixed),n(mixed-2.4Ghz),p,ac
par Spoofing.node[7].wlan[0].radio.receiver bandName "\"5.9 GHz\""
attr enum "2.4 GHz,5 GHz,5 GHz (20 MHz),5 GHz (40 MHz),5 GHz (80 MHz),5 GHz (160 MHz),5.9 GHz"
par Spoofing.node[7].wlan[0].radio.receiver channelNumber 3
par Spoofing.node[7].wlan[0].radio typename "\"inet.physicallayer.wireless.ieee80211.packetlevel.Ieee80211DimensionalRadio\""
par Spoofing.node[7].wlan[0].radio radioMediumModule "\"radioMedium\""
par Spoofing.node[7].wlan[0].radio energySourceModule "\"\""
par Spoofing.node[7].wlan[0].radio initialRadioMode "\"off\""
attr enum off,sleep,receiver,transmitter,transceiver
par Spoofing.node[7].wlan[0].radio switchingTimes "\"ms 0 0 0 0 0 0 0 0 0 0 0 0 0 0 0 0 0 0 0 0 0 0 0 0 0\""
par Spoofing.node[7].wlan[0].radio sendRawBytes false
par Spoofing.node[7].wlan[0].radio separateTransmissionParts false
par Spoofing.node[7].wlan[0].radio separateReceptionParts false
par Spoofing.node[7].wlan[0].radio displayCommunicationRange false
par Spoofing.node[7].wlan[0].radio displayInterferenceRange false
par Spoofing.node[7].wlan[0].radio centerFrequency 2.412e+09Hz
attr unit Hz
par Spoofing.node[7].wlan[0].radio bandwidth 1e+07Hz
attr unit Hz
par Spoofing.node[7].wlan[0].radio signalAnalogRepresentation "\"scalar\""
attr enum scalar,dimensional
par Spoofing.node[7].wlan[0].radio opMode "\"p\""
attr enum a,b,g(erp),g(mixed),n(mixed-2.4Ghz),p,ac
par Spoofing.node[7].wlan[0].radio bandName "\"5.9 GHz\""
attr enum "2.4 GHz,5 GHz,5 GHz (20 MHz),5 GHz (40 MHz),5 GHz (80 MHz),5 GHz (160 MHz),5.9 GHz"
par Spoofing.node[7].wlan[0].radio channelNumber 3
par Spoofing.node[7].wlan[0].radio crcMode "\"declared\""
attr enum declared,computed
statistic Spoofing.node[7].wlan[0].radio radioChannel:histogram
field count 1
field mean 3
field stddev nan
field min 3
field max 3
field sum 3
field sqrsum 9
attr interpolationmode sample-hold
attr recordingmode histogram
attr source radioChannelChanged
attr title "Radio channel"
bin	-inf	0
bin	2	0
bin	3	1
bin	4	0
scalar Spoofing.node[7].wlan[0].radio radioMode:count 5
attr interpolationmode sample-hold
attr recordingmode count
attr source radioModeChanged
attr title "Radio mode, count"
scalar Spoofing.node[7].wlan[0].radio receptionState:count 15
attr interpolationmode sample-hold
attr recordingmode count
attr source receptionStateChanged
attr title "Radio reception state, count"
scalar Spoofing.node[7].wlan[0].radio transmissionState:count 4
attr interpolationmode sample-hold
attr recordingmode count
attr source transmissionStateChanged
attr title "Radio transmission state, count"
statistic Spoofing.node[7].wlan[0].radio minSnir:histogram
field count 5
field mean 4149.1842279995
field stddev 7151.7311693551
field min 13.833699277255
field max 16876.799752073
field sum 20745.921139998
field sqrsum 290667683.6643
attr recordingmode histogram
attr source minimumSnir(packetSentToUpper)
attr title "Min SNIR"
bin	-inf	0
bin	0	1
bin	500	1
bin	1000	1
bin	1500	0
bin	2000	1
bin	2500	0
bin	3000	0
bin	3500	0
bin	4000	0
bin	4500	0
bin	5000	0
bin	5500	0
bin	6000	0
bin	6500	0
bin	7000	0
bin	7500	0
bin	8000	0
bin	8500	0
bin	9000	0
bin	9500	0
bin	10000	0
bin	10500	0
bin	11000	0
bin	11500	0
bin	12000	0
bin	12500	0
bin	13000	0
bin	13500	0
bin	14000	0
bin	14500	0
bin	15000	0
bin	15500	0
bin	16000	0
bin	16500	1
bin	17000	0
bin	17500	0
bin	18000	0
bin	18500	0
bin	19000	0
bin	19500	0
bin	20000	0
bin	20500	0
bin	21000	0
bin	21500	0
statistic Spoofing.node[7].wlan[0].radio packetErrorRate:histogram
field count 5
field mean 0.1999620957474
field stddev 0.4471288390145
field min 0
field max 0.99981047873698
field sum 0.99981047873698
field sqrsum 0.99962099339226
attr recordingmode histogram
attr source packetErrorRate(packetSentToUpper)
attr title "Packet error rate"
bin	-inf	0
bin	0	4
bin	0.02	0
bin	0.04	0
bin	0.06	0
bin	0.08	0
bin	0.1	0
bin	0.12	0
bin	0.14	0
bin	0.16	0
bin	0.18	0
bin	0.2	0
bin	0.22	0
bin	0.24	0
bin	0.26	0
bin	0.28	0
bin	0.3	0
bin	0.32	0
bin	0.34	0
bin	0.36	0
bin	0.38	0
bin	0.4	0
bin	0.42	0
bin	0.44	0
bin	0.46	0
bin	0.48	0
bin	0.5	0
bin	0.52	0
bin	0.54	0
bin	0.56	0
bin	0.58	0
bin	0.6	0
bin	0.62	0
bin	0.64	0
bin	0.66	0
bin	0.68	0
bin	0.7	0
bin	0.72	0
bin	0.74	0
bin	0.76	0
bin	0.78	0
bin	0.8	0
bin	0.82	0
bin	0.84	0
bin	0.86	0
bin	0.88	0
bin	0.9	0
bin	0.92	0
bin	0.94	0
bin	0.96	0
bin	0.98	1
bin	1	0
bin	1.02	0
bin	1.04	0
bin	1.06	0
bin	1.08	0
bin	1.1	0
bin	1.12	0
bin	1.14	0
bin	1.16	0
bin	1.18	0
bin	1.2	0
bin	1.22	0
bin	1.24	0
bin	1.26	0
statistic Spoofing.node[7].wlan[0].radio bitErrorRate:histogram
field count 0
field mean -nan
field stddev nan
field min nan
field max nan
field sum 0
field sqrsum 0
attr recordingmode histogram
attr source bitErrorRate(packetSentToUpper)
attr title "Bit error rate"
bin	-inf	0
bin	0	0
bin	1	0
statistic Spoofing.node[7].wlan[0].radio symbolErrorRate:histogram
field count 0
field mean -nan
field stddev nan
field min nan
field max nan
field sum 0
field sqrsum 0
attr recordingmode histogram
attr source symbolErrorRate(packetSentToUpper)
attr title "Symbol error rate"
bin	-inf	0
bin	0	0
bin	1	0
par Spoofing.node[7].wlan[0] typename "\"inet.linklayer.ieee80211.Ieee80211Interface\""
par Spoofing.node[7].wlan[0] displayStringTextFormat "\"%a (%i)\\n%m\""
par Spoofing.node[7].wlan[0] recordPcap false
par Spoofing.node[7].wlan[0] numPcapRecorders 0
par Spoofing.node[7].wlan[0] interfaceTableModule "\"Spoofing.node[7].interfaceTable\""
par Spoofing.node[7].wlan[0] energySourceModule "\"\""
par Spoofing.node[7].wlan[0] opMode "\"p\""
attr enum a,b,g(erp),g(mixed),n(mixed-2.4Ghz),p,ac
par Spoofing.node[7].wlan[0] address "\"0A-AA-00-00-00-08\""
attr mutable ""
par Spoofing.node[7].wlan[0] protocol "\"\""
par Spoofing.node[7].wlan[0] bitrate -1bps
attr unit bps
scalar Spoofing.node[7].wlan[0] packetDropInterfaceDown:count 0
attr interpolationmode none
attr recordingmode count
attr source packetDropReasonIsInterfaceDown(packetDropped)
attr title "packet drops: interface down, count"
scalar Spoofing.node[7].wlan[0] packetDropInterfaceDown:sum(packetBytes) 0
attr interpolationmode none
attr recordingmode sum(packetBytes)
attr source packetDropReasonIsInterfaceDown(packetDropped)
attr title "packet drops: interface down, sum(packetBytes)"
scalar Spoofing.node[7].wlan[0] packetDropNoCarrier:count 0
attr interpolationmode none
attr recordingmode count
attr source packetDropReasonIsNoCarrier(packetDropped)
attr title "packet drops: no carrier, count"
scalar Spoofing.node[7].wlan[0] packetDropNoCarrier:sum(packetBytes) 0
attr interpolationmode none
attr recordingmode sum(packetBytes)
attr source packetDropReasonIsNoCarrier(packetDropped)
attr title "packet drops: no carrier, sum(packetBytes)"
par Spoofing.node[7].ipv4.transportIn.channel typename "\"ned.IdealChannel\""
par Spoofing.node[7].ipv4.up.out[0].channel typename "\"ned.IdealChannel\""
par Spoofing.node[7].ipv4.lp.out[2].channel typename "\"ned.IdealChannel\""
par Spoofing.node[7].ipv4.ifIn.channel typename "\"ned.IdealChannel\""
par Spoofing.node[7].ipv4.configurator typename "\"inet.networklayer.configurator.ipv4.HostAutoConfigurator\""
par Spoofing.node[7].ipv4.configurator interfaceTableModule "\"Spoofing.node[7].interfaceTable\""
par Spoofing.node[7].ipv4.configurator interfaces "\"wlan0\""
par Spoofing.node[7].ipv4.configurator addressBase "\"10.0.0.0\""
par Spoofing.node[7].ipv4.configurator netmask "\"255.0.0.0\""
par Spoofing.node[7].ipv4.configurator mcastGroups "\"224.0.0.1\""
par Spoofing.node[7].ipv4.routingTable typename "\"inet.networklayer.ipv4.Ipv4RoutingTable\""
par Spoofing.node[7].ipv4.routingTable interfaceTableModule "\"Spoofing.node[7].interfaceTable\""
par Spoofing.node[7].ipv4.routingTable routerId "\"auto\""
par Spoofing.node[7].ipv4.routingTable netmaskRoutes "\"*\""
par Spoofing.node[7].ipv4.routingTable forwarding true
par Spoofing.node[7].ipv4.routingTable multicastForwarding false
par Spoofing.node[7].ipv4.routingTable useAdminDist false
par Spoofing.node[7].ipv4.routingTable routingFile "\"\""
par Spoofing.node[7].ipv4.natTable typename "\"inet.networklayer.ipv4.Ipv4NatTable\""
par Spoofing.node[7].ipv4.natTable networkProtocolModule "\"^.ip\""
par Spoofing.node[7].ipv4.natTable config "<config/> at content:1"
par Spoofing.node[7].ipv4.up typename "\"inet.common.MessageDispatcher\""
par Spoofing.node[7].ipv4.up displayStringTextFormat "\"processed %p pk (%l)\""
par Spoofing.node[7].ipv4.up forwardServiceRegistration true
par Spoofing.node[7].ipv4.up forwardProtocolRegistration true
par Spoofing.node[7].ipv4.igmp typename "\"inet.networklayer.ipv4.Igmpv2\""
par Spoofing.node[7].ipv4.igmp interfaceTableModule "\"Spoofing.node[7].interfaceTable\""
par Spoofing.node[7].ipv4.igmp routingTableModule "\"Spoofing.node[7].ipv4.routingTable\""
par Spoofing.node[7].ipv4.igmp crcMode "\"declared\""
attr enum declared,computed
par Spoofing.node[7].ipv4.igmp enabled true
par Spoofing.node[7].ipv4.igmp robustnessVariable 2
par Spoofing.node[7].ipv4.igmp queryInterval 125s
attr unit s
par Spoofing.node[7].ipv4.igmp queryResponseInterval 10s
attr unit s
par Spoofing.node[7].ipv4.igmp groupMembershipInterval 260s
attr unit s
par Spoofing.node[7].ipv4.igmp otherQuerierPresentInterval 255s
attr unit s
par Spoofing.node[7].ipv4.igmp startupQueryInterval 31.25s
attr unit s
par Spoofing.node[7].ipv4.igmp startupQueryCount 2
par Spoofing.node[7].ipv4.igmp lastMemberQueryInterval 1s
attr unit s
par Spoofing.node[7].ipv4.igmp lastMemberQueryCount 2
par Spoofing.node[7].ipv4.igmp unsolicitedReportInterval 10s
attr unit s
par Spoofing.node[7].ipv4.icmp typename "\"inet.networklayer.ipv4.Icmp\""
par Spoofing.node[7].ipv4.icmp interfaceTableModule "\"Spoofing.node[7].interfaceTable\""
par Spoofing.node[7].ipv4.icmp routingTableModule "\"Spoofing.node[7].ipv4.routingTable\""
par Spoofing.node[7].ipv4.icmp crcMode "\"declared\""
attr enum declared,computed
attr mutable ""
par Spoofing.node[7].ipv4.icmp quoteLength 8B
attr mutable ""
attr unit B
par Spoofing.node[7].ipv4.mp typename "\"inet.common.MessageDispatcher\""
par Spoofing.node[7].ipv4.mp displayStringTextFormat "\"processed %p pk (%l)\""
par Spoofing.node[7].ipv4.mp forwardServiceRegistration true
par Spoofing.node[7].ipv4.mp forwardProtocolRegistration true
par Spoofing.node[7].ipv4.ip typename "\"inet.networklayer.ipv4.Ipv4\""
par Spoofing.node[7].ipv4.ip interfaceTableModule "\"Spoofing.node[7].interfaceTable\""
par Spoofing.node[7].ipv4.ip routingTableModule "\"Spoofing.node[7].ipv4.routingTable\""
par Spoofing.node[7].ipv4.ip arpModule "\"Spoofing.node[7].ipv4.arp\""
par Spoofing.node[7].ipv4.ip icmpModule "\"Spoofing.node[7].ipv4.icmp\""
par Spoofing.node[7].ipv4.ip crcMode "\"declared\""
attr enum declared,computed
par Spoofing.node[7].ipv4.ip timeToLive 32
par Spoofing.node[7].ipv4.ip multicastTimeToLive 32
par Spoofing.node[7].ipv4.ip fragmentTimeout 60s
attr unit s
par Spoofing.node[7].ipv4.ip limitedBroadcast false
par Spoofing.node[7].ipv4.ip directBroadcastInterfaces "\"\""
scalar Spoofing.node[7].ipv4.ip packetDropAddressResolutionFailed:count 0
attr interpolationmode none
attr recordingmode count
attr source packetDropReasonIsAddressResolutionFailed(packetDropped)
attr title "packet drop: address resolution failed, count"
scalar Spoofing.node[7].ipv4.ip packetDropAddressResolutionFailed:sum(packetBytes) 0
attr interpolationmode none
attr recordingmode sum(packetBytes)
attr source packetDropReasonIsAddressResolutionFailed(packetDropped)
attr title "packet drop: address resolution failed, sum(packetBytes)"
scalar Spoofing.node[7].ipv4.ip packetDropHopLimitReached:count 0
attr interpolationmode none
attr recordingmode count
attr source packetDropReasonIsHopLimitReached(packetDropped)
attr title "packet drop: hop limit reached, count"
scalar Spoofing.node[7].ipv4.ip packetDropHopLimitReached:sum(packetBytes) 0
attr interpolationmode none
attr recordingmode sum(packetBytes)
attr source packetDropReasonIsHopLimitReached(packetDropped)
attr title "packet drop: hop limit reached, sum(packetBytes)"
scalar Spoofing.node[7].ipv4.ip packetDropForwardingDisabled:count 0
attr interpolationmode none
attr recordingmode count
attr source packetDropReasonIsForwardingDisabled(packetDropped)
attr title "packet drop: forwarding disabled, count"
scalar Spoofing.node[7].ipv4.ip packetDropForwardingDisabled:sum(packetBytes) 0
attr interpolationmode none
attr recordingmode sum(packetBytes)
attr source packetDropReasonIsForwardingDisabled(packetDropped)
attr title "packet drop: forwarding disabled, sum(packetBytes)"
scalar Spoofing.node[7].ipv4.ip packetDropNoInterfaceFound:count 0
attr interpolationmode none
attr recordingmode count
attr source packetDropReasonIsNoInterfaceFound(packetDropped)
attr title "packet drop: no interface found, count"
scalar Spoofing.node[7].ipv4.ip packetDropNoInterfaceFound:sum(packetBytes) 0
attr interpolationmode none
attr recordingmode sum(packetBytes)
attr source packetDropReasonIsNoInterfaceFound(packetDropped)
attr title "packet drop: no interface found, sum(packetBytes)"
scalar Spoofing.node[7].ipv4.ip packetDropNoRouteFound:count 0
attr interpolationmode none
attr recordingmode count
attr source packetDropReasonIsNoRouteFound(packetDropped)
attr title "packet drop: no route found, count"
scalar Spoofing.node[7].ipv4.ip packetDropNoRouteFound:sum(packetBytes) 0
attr interpolationmode none
attr recordingmode sum(packetBytes)
attr source packetDropReasonIsNoRouteFound(packetDropped)
attr title "packet drop: no route found, sum(packetBytes)"
scalar Spoofing.node[7].ipv4.ip packetDropUndefined:count 0
attr interpolationmode none
attr recordingmode count
attr source packetDropReasonIsUndefined(packetDropped)
attr title "packet drop: undefined, count"
scalar Spoofing.node[7].ipv4.ip packetDropUndefined:sum(packetBytes) 0
attr interpolationmode none
attr recordingmode sum(packetBytes)
attr source packetDropReasonIsUndefined(packetDropped)
attr title "packet drop: undefined, sum(packetBytes)"
par Spoofing.node[7].ipv4.arp typename "\"inet.networklayer.arp.ipv4.Arp\""
par Spoofing.node[7].ipv4.arp interfaceTableModule "\"Spoofing.node[7].interfaceTable\""
par Spoofing.node[7].ipv4.arp routingTableModule "\"Spoofing.node[7].ipv4.routingTable\""
par Spoofing.node[7].ipv4.arp retryTimeout 1s
attr unit s
par Spoofing.node[7].ipv4.arp retryCount 3
par Spoofing.node[7].ipv4.arp cacheTimeout 120s
attr unit s
par Spoofing.node[7].ipv4.arp proxyArpInterfaces "\"\""
scalar Spoofing.node[7].ipv4.arp arpResolutionFailed:count 0
attr recordingmode count
attr title "ARP failed resolutions, count"
scalar Spoofing.node[7].ipv4.arp arpResolutionCompleted:count 0
attr recordingmode count
attr title "ARP completed resolutions, count"
scalar Spoofing.node[7].ipv4.arp arpResolutionInitiated:count 0
attr recordingmode count
attr title "ARP initiated resolutions, count"
scalar Spoofing.node[7].ipv4.arp arpReplySent:count 0
attr recordingmode count
attr source arpReplySent
attr title "ARP replies sent, count"
scalar Spoofing.node[7].ipv4.arp arpReplySent:sum(packetBytes) 0
attr recordingmode sum(packetBytes)
attr source arpReplySent
attr title "ARP replies sent, sum(packetBytes)"
scalar Spoofing.node[7].ipv4.arp arpRequestSent:count 0
attr recordingmode count
attr source arpRequestSent
attr title "ARP request sent, count"
scalar Spoofing.node[7].ipv4.arp arpRequestSent:sum(packetBytes) 0
attr recordingmode sum(packetBytes)
attr source arpRequestSent
attr title "ARP request sent, sum(packetBytes)"
par Spoofing.node[7].ipv4.lp typename "\"inet.common.MessageDispatcher\""
par Spoofing.node[7].ipv4.lp displayStringTextFormat "\"processed %p pk (%l)\""
par Spoofing.node[7].ipv4.lp forwardServiceRegistration true
par Spoofing.node[7].ipv4.lp forwardProtocolRegistration true
par Spoofing.node[7].ipv4 typename "\"inet.networklayer.ipv4.Ipv4NetworkLayer\""
par Spoofing.node[7].ipv4 forwarding true
par Spoofing.node[7].ipv4 multicastForwarding false
par Spoofing.node[7].ipv4 interfaceTableModule "\"Spoofing.node[7].interfaceTable\""
par Spoofing.node[7].ipv4 displayStringTextFormat "\"%i\""
par Spoofing.node[7].nl typename "\"inet.common.MessageDispatcher\""
par Spoofing.node[7].nl displayStringTextFormat "\"processed %p pk (%l)\""
par Spoofing.node[7].nl forwardServiceRegistration true
par Spoofing.node[7].nl forwardProtocolRegistration true
par Spoofing.node[7].udp typename "\"inet.transportlayer.udp.Udp\""
par Spoofing.node[7].udp interfaceTableModule "\"Spoofing.node[7].interfaceTable\""
par Spoofing.node[7].udp icmpModule "\"^.ipv4.icmp\""
par Spoofing.node[7].udp icmpv6Module "\"^.ipv6.icmpv6\""
par Spoofing.node[7].udp crcMode "\"declared\""
attr enum disabled,declared,computed
par Spoofing.node[7].udp defaultMulticastLoop true
scalar Spoofing.node[7].udp packetReceived:count 5
attr interpolationmode none
attr recordingmode count
attr source packetReceived
attr title "packets received, count"
scalar Spoofing.node[7].udp packetReceived:sum(packetBytes) 540
attr interpolationmode none
attr recordingmode sum(packetBytes)
attr source packetReceived
attr title "packets received, sum(packetBytes)"
scalar Spoofing.node[7].udp packetSent:count 1
attr interpolationmode none
attr recordingmode count
attr source packetSent
attr title "packets sent, count"
scalar Spoofing.node[7].udp packetSent:sum(packetBytes) 108
attr interpolationmode none
attr recordingmode sum(packetBytes)
attr source packetSent
attr title "packets sent, sum(packetBytes)"
scalar Spoofing.node[7].udp passedUpPk:count 5
attr interpolationmode none
attr recordingmode count
attr source packetSentToUpper
attr title "packets passed up, count"
scalar Spoofing.node[7].udp droppedPkWrongPort:count 0
attr interpolationmode none
attr recordingmode count
attr source packetDropReasonIsNoPortFound(packetDropped)
attr title "packets dropped (wrong port), count"
scalar Spoofing.node[7].udp droppedPkBadChecksum:count 0
attr interpolationmode none
attr recordingmode count
attr source packetDropReasonIsIncorrectlyReceived(packetDropped)
attr title "packets dropped (checksum error), count"
par Spoofing.node[7].tcp typename "\"inet.transportlayer.tcp.Tcp\""
par Spoofing.node[7].tcp crcMode "\"declared\""
attr enum declared,computed
par Spoofing.node[7].tcp advertisedWindow 7504
par Spoofing.node[7].tcp delayedAcksEnabled false
par Spoofing.node[7].tcp nagleEnabled true
par Spoofing.node[7].tcp limitedTransmitEnabled false
par Spoofing.node[7].tcp increasedIWEnabled false
par Spoofing.node[7].tcp sackSupport false
par Spoofing.node[7].tcp windowScalingSupport false
par Spoofing.node[7].tcp windowScalingFactor -1
par Spoofing.node[7].tcp timestampSupport false
par Spoofing.node[7].tcp mss 536
par Spoofing.node[7].tcp msl 120s
attr unit s
par Spoofing.node[7].tcp tcpAlgorithmClass "\"TcpReno\""
attr enum TcpVegas,TcpWestwood,TcpNewReno,TcpReno,TcpTahoe,TcpNoCongestionControl
par Spoofing.node[7].tcp useDataNotification false
par Spoofing.node[7].tcp dupthresh 3
par Spoofing.node[7].tcp initialSsthresh 4294967295
par Spoofing.node[7].tcp stopOperationExtraTime 0s
attr unit s
par Spoofing.node[7].tcp stopOperationTimeout 2s
attr unit s
par Spoofing.node[7].tcp ecnWillingness false
par Spoofing.node[7].tcp dctcpGamma 0.0625
par Spoofing.node[7].tn typename "\"inet.common.MessageDispatcher\""
par Spoofing.node[7].tn displayStringTextFormat "\"processed %p pk (%l)\""
par Spoofing.node[7].tn forwardServiceRegistration true
par Spoofing.node[7].tn forwardProtocolRegistration true
par Spoofing.node[7].app[0] typename "\"spoofing.veins_inet.VeinsInetSampleApplication\""
par Spoofing.node[7].app[0] interfaceTableModule "\"Spoofing.node[7].interfaceTable\""
par Spoofing.node[7].app[0] interface "\"wlan0\""
scalar Spoofing.node[7].app[0] packetReceived:count 5
attr interpolationmode none
attr recordingmode count
attr source packetReceived
attr title "packets received, count"
scalar Spoofing.node[7].app[0] packetReceived:sum(packetBytes) 500
attr interpolationmode none
attr recordingmode sum(packetBytes)
attr source packetReceived
attr title "packets received, sum(packetBytes)"
statistic Spoofing.node[7].app[0] rcvdPkLifetime:stats
field count 5
field mean 0.001700231167
field stddev 0.0006090614247551
field min 0.001137974985
field max 0.002583802649
field sum 0.008501155835
field sqrsum 1.593775338269e-05
attr interpolationmode none
attr recordingmode stats
attr source dataAge(packetReceived)
attr title "received packet lifetime"
attr unit s
scalar Spoofing.node[7].app[0] packetSent:count 1
attr interpolationmode none
attr recordingmode count
attr source packetSent
attr title "packets sent, count"
scalar Spoofing.node[7].app[0] packetSent:sum(packetBytes) 100
attr interpolationmode none
attr recordingmode sum(packetBytes)
attr source packetSent
attr title "packets sent, sum(packetBytes)"
par Spoofing.node[7].at typename "\"inet.common.MessageDispatcher\""
par Spoofing.node[7].at displayStringTextFormat "\"processed %p pk (%l)\""
par Spoofing.node[7].at forwardServiceRegistration true
par Spoofing.node[7].at forwardProtocolRegistration true
par Spoofing.node[7] typename "\"spoofing.veins_inet.VeinsInetCar\""
par Spoofing.node[7] hasStatus false
par Spoofing.node[7] osgModel "\"\""
par Spoofing.node[7] osgModelColor "\"\""
par Spoofing.node[7] canvasImage "\"\""
par Spoofing.node[7] canvasImageColor "\"\""
par Spoofing.node[7] recordPcap false
par Spoofing.node[7] numPcapRecorders 0
par Spoofing.node[7] numLoInterfaces 1
par Spoofing.node[7] numWlanInterfaces 1
par Spoofing.node[7] numEthInterfaces 0
par Spoofing.node[7] numPppInterfaces 0
par Spoofing.node[7] numTunInterfaces 0
par Spoofing.node[7] numVirtInterfaces 0
par Spoofing.node[7] fcsMode "\"declared\""
attr enum declared,computed
par Spoofing.node[7] hasIpv4 true
par Spoofing.node[7] hasIpv6 false
par Spoofing.node[7] hasGn false
par Spoofing.node[7] forwarding true
par Spoofing.node[7] multicastForwarding false
par Spoofing.node[7] hasUdp true
par Spoofing.node[7] hasTcp true
par Spoofing.node[7] hasSctp false
par Spoofing.node[7] numApps 1
par Spoofing.node[11].radioIn[0].channel typename "\"ned.IdealChannel\""
par Spoofing.node[11].mobility typename "\"spoofing.veins_inet.VeinsInetMobility\""
par Spoofing.node[11].mobility subjectModule "\"^\""
par Spoofing.node[11].mobility coordinateSystemModule "\"\""
par Spoofing.node[11].mobility displayStringTextFormat "\"p: %p\\nv: %v\""
attr mutable ""
par Spoofing.node[11].mobility updateDisplayString true
par Spoofing.node[11].mobility constraintAreaMinX "-inf m"
attr unit m
par Spoofing.node[11].mobility constraintAreaMinY "-inf m"
attr unit m
par Spoofing.node[11].mobility constraintAreaMinZ "-inf m"
attr unit m
par Spoofing.node[11].mobility constraintAreaMaxX "inf m"
attr unit m
par Spoofing.node[11].mobility constraintAreaMaxY "inf m"
attr unit m
par Spoofing.node[11].mobility constraintAreaMaxZ "inf m"
attr unit m
par Spoofing.node[11].mobility initFromDisplayString true
par Spoofing.node[11].interfaceTable typename "\"inet.networklayer.common.InterfaceTable\""
par Spoofing.node[11].interfaceTable displayAddresses false
par Spoofing.node[11].cb typename "\"inet.common.MessageDispatcher\""
par Spoofing.node[11].cb displayStringTextFormat "\"processed %p pk (%l)\""
par Spoofing.node[11].cb forwardServiceRegistration true
par Spoofing.node[11].cb forwardProtocolRegistration true
par Spoofing.node[11].bl typename "\"inet.common.MessageDispatcher\""
par Spoofing.node[11].bl displayStringTextFormat "\"processed %p pk (%l)\""
par Spoofing.node[11].bl forwardServiceRegistration true
par Spoofing.node[11].bl forwardProtocolRegistration true
par Spoofing.node[11].li typename "\"inet.common.MessageDispatcher\""
par Spoofing.node[11].li displayStringTextFormat "\"processed %p pk (%l)\""
par Spoofing.node[11].li forwardServiceRegistration true
par Spoofing.node[11].li forwardProtocolRegistration true
par Spoofing.node[11].lo[0].upperLayerIn.channel typename "\"ned.IdealChannel\""
par Spoofing.node[11].lo[0].lo.upperLayerOut.channel typename "\"ned.IdealChannel\""
par Spoofing.node[11].lo[0].lo typename "\"inet.linklayer.loopback.Loopback\""
par Spoofing.node[11].lo[0].lo interfaceTableModule "\"Spoofing.node[11].interfaceTable\""
par Spoofing.node[11].lo[0].lo mtu 4470B
attr unit B
scalar Spoofing.node[11].lo[0].lo rcvdPkFromHl:count 1
attr interpolationmode none
attr recordingmode count
attr source packetReceivedFromUpper
attr title "packets received from higher layer, count"
scalar Spoofing.node[11].lo[0].lo rcvdPkFromHl:sum(packetBytes) 128
attr interpolationmode none
attr recordingmode sum(packetBytes)
attr source packetReceivedFromUpper
attr title "packets received from higher layer, sum(packetBytes)"
scalar Spoofing.node[11].lo[0].lo passedUpPk:count 1
attr interpolationmode none
attr recordingmode count
attr source packetSentToUpper
attr title "packets passed to higher layer, count"
scalar Spoofing.node[11].lo[0].lo passedUpPk:sum(packetBytes) 128
attr interpolationmode none
attr recordingmode sum(packetBytes)
attr source packetSentToUpper
attr title "packets passed to higher layer, sum(packetBytes)"
par Spoofing.node[11].lo[0] typename "\"inet.linklayer.loopback.LoopbackInterface\""
par Spoofing.node[11].lo[0] displayStringTextFormat "\"%a (%i)\\n%m\""
par Spoofing.node[11].lo[0] recordPcap false
par Spoofing.node[11].lo[0] numPcapRecorders 0
par Spoofing.node[11].lo[0] interfaceTableModule "\"Spoofing.node[11].interfaceTable\""
scalar Spoofing.node[11].lo[0] packetDropInterfaceDown:count 0
attr interpolationmode none
attr recordingmode count
attr source packetDropReasonIsInterfaceDown(packetDropped)
attr title "packet drops: interface down, count"
scalar Spoofing.node[11].lo[0] packetDropInterfaceDown:sum(packetBytes) 0
attr interpolationmode none
attr recordingmode sum(packetBytes)
attr source packetDropReasonIsInterfaceDown(packetDropped)
attr title "packet drops: interface down, sum(packetBytes)"
scalar Spoofing.node[11].lo[0] packetDropNoCarrier:count 0
attr interpolationmode none
attr recordingmode count
attr source packetDropReasonIsNoCarrier(packetDropped)
attr title "packet drops: no carrier, count"
scalar Spoofing.node[11].lo[0] packetDropNoCarrier:sum(packetBytes) 0
attr interpolationmode none
attr recordingmode sum(packetBytes)
attr source packetDropReasonIsNoCarrier(packetDropped)
attr title "packet drops: no carrier, sum(packetBytes)"
par Spoofing.node[11].wlan[0].radioIn.channel typename "\"ned.IdealChannel\""
par Spoofing.node[11].wlan[0].llc.upperLayerOut.channel typename "\"ned.IdealChannel\""
par Spoofing.node[11].wlan[0].upperLayerIn.channel typename "\"ned.IdealChannel\""
par Spoofing.node[11].wlan[0].mib typename "\"inet.linklayer.ieee80211.mib.Ieee80211Mib\""
par Spoofing.node[11].wlan[0].llc typename "\"inet.linklayer.ieee80211.llc.Ieee80211LlcEpd\""
par Spoofing.node[11].wlan[0].mgmt typename "\"inet.linklayer.ieee80211.mgmt.Ieee80211MgmtAdhoc\""
par Spoofing.node[11].wlan[0].mgmt mibModule "\"Spoofing.node[11].wlan[0].mib\""
par Spoofing.node[11].wlan[0].mgmt macModule "\"Spoofing.node[11].wlan[0].mac\""
par Spoofing.node[11].wlan[0].mgmt interfaceTableModule "\"Spoofing.node[11].interfaceTable\""
par Spoofing.node[11].wlan[0].mac.dcf.channelAccess.pendingQueue typename "\"inet.linklayer.ieee80211.mac.queue.PendingQueue\""
par Spoofing.node[11].wlan[0].mac.dcf.channelAccess.pendingQueue displayStringTextFormat "\"contains %p pk (%l) pushed %u\\npulled %o removed %r dropped %d\""
par Spoofing.node[11].wlan[0].mac.dcf.channelAccess.pendingQueue packetCapacity 100
par Spoofing.node[11].wlan[0].mac.dcf.channelAccess.pendingQueue dataCapacity -1b
attr unit b
par Spoofing.node[11].wlan[0].mac.dcf.channelAccess.pendingQueue dropperClass "\"inet::queueing::PacketAtCollectionEndDropper\""
par Spoofing.node[11].wlan[0].mac.dcf.channelAccess.pendingQueue comparatorClass "\"inet::ieee80211::MgmtOverDataComparator\""
par Spoofing.node[11].wlan[0].mac.dcf.channelAccess.pendingQueue bufferModule "\"\""
scalar Spoofing.node[11].wlan[0].mac.dcf.channelAccess.pendingQueue queueLength:last 0
attr autoWarmupFilter false
attr interpolationmode sample-hold
attr recordingmode last
attr source "warmup(atomic(constant0(packetPushEnded) + count(packetPushStarted) - count(packetPulled) - count(packetRemoved) - count(packetDropped)))"
attr title "queue length, last"
attr unit pk
scalar Spoofing.node[11].wlan[0].mac.dcf.channelAccess.pendingQueue queueLength:max 1
attr autoWarmupFilter false
attr interpolationmode sample-hold
attr recordingmode max
attr source "warmup(atomic(constant0(packetPushEnded) + count(packetPushStarted) - count(packetPulled) - count(packetRemoved) - count(packetDropped)))"
attr title "queue length, max"
attr unit pk
scalar Spoofing.node[11].wlan[0].mac.dcf.channelAccess.pendingQueue queueLength:timeavg 2.6978555979601e-06
attr autoWarmupFilter false
attr interpolationmode sample-hold
attr recordingmode timeavg
attr source "warmup(atomic(constant0(packetPushEnded) + count(packetPushStarted) - count(packetPulled) - count(packetRemoved) - count(packetDropped)))"
attr title "queue length, timeavg"
attr unit pk
scalar Spoofing.node[11].wlan[0].mac.dcf.channelAccess.pendingQueue queueBitLength:last 0
attr autoWarmupFilter false
attr interpolationmode sample-hold
attr recordingmode last
attr source "warmup(atomic(constant0(packetPushEnded) + sum(packetLength(packetPushStarted)) - sum(packetLength(packetPulled)) - sum(packetLength(packetRemoved)) - sum(packetLength(packetDropped))))"
attr title "queue bit length, last"
attr unit b
scalar Spoofing.node[11].wlan[0].mac.dcf.channelAccess.pendingQueue queueBitLength:max 1264
attr autoWarmupFilter false
attr interpolationmode sample-hold
attr recordingmode max
attr source "warmup(atomic(constant0(packetPushEnded) + sum(packetLength(packetPushStarted)) - sum(packetLength(packetPulled)) - sum(packetLength(packetRemoved)) - sum(packetLength(packetDropped))))"
attr title "queue bit length, max"
attr unit b
scalar Spoofing.node[11].wlan[0].mac.dcf.channelAccess.pendingQueue queueBitLength:timeavg 0.0034100894758216
attr autoWarmupFilter false
attr interpolationmode sample-hold
attr recordingmode timeavg
attr source "warmup(atomic(constant0(packetPushEnded) + sum(packetLength(packetPushStarted)) - sum(packetLength(packetPulled)) - sum(packetLength(packetRemoved)) - sum(packetLength(packetDropped))))"
attr title "queue bit length, timeavg"
attr unit b
statistic Spoofing.node[11].wlan[0].mac.dcf.channelAccess.pendingQueue queueingTime:histogram
field count 1
field mean 0.00038579028
field stddev nan
field min 0.00038579028
field max 0.00038579028
field sum 0.00038579028
field sqrsum 1.4883414014248e-07
attr interpolationmode none
attr recordingmode histogram
attr source queueingTime(packetPulled)
attr title "queueing times"
attr unit s
bin	-inf	0
bin	0	1
bin	0.01	0
bin	0.02	0
bin	0.03	0
bin	0.04	0
bin	0.05	0
bin	0.06	0
bin	0.07	0
bin	0.08	0
bin	0.09	0
bin	0.1	0
bin	0.11	0
bin	0.12	0
bin	0.13	0
bin	0.14	0
bin	0.15	0
bin	0.16	0
bin	0.17	0
bin	0.18	0
bin	0.19	0
bin	0.2	0
bin	0.21	0
bin	0.22	0
bin	0.23	0
bin	0.24	0
bin	0.25	0
bin	0.26	0
bin	0.27	0
bin	0.28	0
bin	0.29	0
bin	0.3	0
bin	0.31	0
bin	0.32	0
bin	0.33	0
bin	0.34	0
bin	0.35	0
bin	0.36	0
bin	0.37	0
bin	0.38	0
bin	0.39	0
bin	0.4	0
bin	0.41	0
bin	0.42	0
bin	0.43	0
bin	0.44	0
bin	0.45	0
bin	0.46	0
bin	0.47	0
bin	0.48	0
bin	0.49	0
bin	0.5	0
bin	0.51	0
scalar Spoofing.node[11].wlan[0].mac.dcf.channelAccess.pendingQueue outgoingPackets:count 1
attr recordingmode count
attr source packetPulled
attr title "outgoing packets, count"
attr unit pk
scalar Spoofing.node[11].wlan[0].mac.dcf.channelAccess.pendingQueue outgoingPacketLengths:sum 1264
attr interpolationmode none
attr recordingmode sum
attr source packetLength(packetPulled)
attr title "outgoing packet lengths, sum"
attr unit b
statistic Spoofing.node[11].wlan[0].mac.dcf.channelAccess.pendingQueue outgoingPacketLengths:histogram
field count 1
field mean 1264
field stddev nan
field min 1264
field max 1264
field sum 1264
field sqrsum 1597696
attr interpolationmode none
attr recordingmode histogram
attr source packetLength(packetPulled)
attr title "outgoing packet lengths"
attr unit b
bin	-inf	0
bin	1263	0
bin	1264	1
bin	1265	0
statistic Spoofing.node[11].wlan[0].mac.dcf.channelAccess.pendingQueue flowQueueingTime:histogram
field count 0
field mean -nan
field stddev nan
field min nan
field max nan
field sum 0
field sqrsum 0
attr interpolationmode none
attr recordingmode histogram
attr source queueingTime(demuxFlow(packetPulled))
attr title "flow queueing times"
attr unit s
bin	-inf	0
bin	0	0
bin	1	0
scalar Spoofing.node[11].wlan[0].mac.dcf.channelAccess.pendingQueue incomingPackets:count 1
attr recordingmode count
attr source packetPushStarted
attr title "incoming packets, count"
attr unit pk
scalar Spoofing.node[11].wlan[0].mac.dcf.channelAccess.pendingQueue incomingPacketLengths:sum 1264
attr interpolationmode none
attr recordingmode sum
attr source packetLength(packetPushStarted)
attr title "incoming packet lengths, sum"
attr unit b
statistic Spoofing.node[11].wlan[0].mac.dcf.channelAccess.pendingQueue incomingPacketLengths:histogram
field count 1
field mean 1264
field stddev nan
field min 1264
field max 1264
field sum 1264
field sqrsum 1597696
attr interpolationmode none
attr recordingmode histogram
attr source packetLength(packetPushStarted)
attr title "incoming packet lengths"
attr unit b
bin	-inf	0
bin	1263	0
bin	1264	1
bin	1265	0
scalar Spoofing.node[11].wlan[0].mac.dcf.channelAccess.pendingQueue droppedPacketsQueueOverflow:count 0
attr interpolationmode none
attr recordingmode count
attr source packetDropReasonIsQueueOverflow(packetDropped)
attr title "dropped packets: queue overflow, count"
attr unit pk
scalar Spoofing.node[11].wlan[0].mac.dcf.channelAccess.pendingQueue droppedPacketLengthsQueueOverflow:sum 0
attr interpolationmode none
attr recordingmode sum
attr source packetLength(packetDropReasonIsQueueOverflow(packetDropped))
attr title "dropped packet lengths: queue overflow, sum"
attr unit b
par Spoofing.node[11].wlan[0].mac.dcf.channelAccess.inProgressFrames typename "\"inet.linklayer.ieee80211.mac.queue.InProgressFrames\""
par Spoofing.node[11].wlan[0].mac.dcf.channelAccess.inProgressFrames pendingQueueModule "\"^.pendingQueue\""
par Spoofing.node[11].wlan[0].mac.dcf.channelAccess.inProgressFrames originatorMacDataServiceModule "\"^.^.originatorMacDataService\""
par Spoofing.node[11].wlan[0].mac.dcf.channelAccess.inProgressFrames ackHandlerModule "\"^.^.ackHandler\""
statistic Spoofing.node[11].wlan[0].mac.dcf.channelAccess.inProgressFrames queueingTime:histogram
field count 1
field mean 0.000152
field stddev nan
field min 0.000152
field max 0.000152
field sum 0.000152
field sqrsum 2.3104e-08
attr interpolationmode none
attr recordingmode histogram
attr source queueingTime(packetDequeued)
attr title "queueing times"
bin	-inf	0
bin	0	1
bin	0.01	0
bin	0.02	0
bin	0.03	0
bin	0.04	0
bin	0.05	0
bin	0.06	0
bin	0.07	0
bin	0.08	0
bin	0.09	0
bin	0.1	0
bin	0.11	0
bin	0.12	0
bin	0.13	0
bin	0.14	0
bin	0.15	0
bin	0.16	0
bin	0.17	0
bin	0.18	0
bin	0.19	0
bin	0.2	0
bin	0.21	0
bin	0.22	0
bin	0.23	0
bin	0.24	0
bin	0.25	0
bin	0.26	0
bin	0.27	0
bin	0.28	0
bin	0.29	0
bin	0.3	0
bin	0.31	0
bin	0.32	0
bin	0.33	0
bin	0.34	0
bin	0.35	0
bin	0.36	0
bin	0.37	0
bin	0.38	0
bin	0.39	0
bin	0.4	0
bin	0.41	0
bin	0.42	0
bin	0.43	0
bin	0.44	0
bin	0.45	0
bin	0.46	0
bin	0.47	0
bin	0.48	0
bin	0.49	0
bin	0.5	0
bin	0.51	0
scalar Spoofing.node[11].wlan[0].mac.dcf.channelAccess.inProgressFrames queueLength:max 1
attr autoWarmupFilter false
attr interpolationmode sample-hold
attr recordingmode max
attr source "warmup(count(packetEnqueued) - count(packetDequeued))"
attr title "queue length, max"
scalar Spoofing.node[11].wlan[0].mac.dcf.channelAccess.inProgressFrames queueLength:timeavg 8.0851063829787e-07
attr autoWarmupFilter false
attr interpolationmode sample-hold
attr recordingmode timeavg
attr source "warmup(count(packetEnqueued) - count(packetDequeued))"
attr title "queue length, timeavg"
par Spoofing.node[11].wlan[0].mac.dcf.channelAccess.contention typename "\"inet.linklayer.ieee80211.mac.contention.Contention\""
par Spoofing.node[11].wlan[0].mac.dcf.channelAccess.contention initialChannelBusy true
par Spoofing.node[11].wlan[0].mac.dcf.channelAccess.contention backoffOptimization true
scalar Spoofing.node[11].wlan[0].mac.dcf.channelAccess.contention channelAccessGranted:count 1
attr recordingmode count
attr title "channel access granted, count"
scalar Spoofing.node[11].wlan[0].mac.dcf.channelAccess.contention stateChanged:count 30
attr enum IDLE,DEFER,IFS_AND_BACKOFF
attr interpolationmode none
attr recordingmode count
attr title "contention state changed, count"
attr type enum
par Spoofing.node[11].wlan[0].mac.dcf.channelAccess typename "\"inet.linklayer.ieee80211.mac.channelaccess.Dcaf\""
par Spoofing.node[11].wlan[0].mac.dcf.channelAccess difsn -1
par Spoofing.node[11].wlan[0].mac.dcf.channelAccess cwMin -1
par Spoofing.node[11].wlan[0].mac.dcf.channelAccess cwMax -1
par Spoofing.node[11].wlan[0].mac.dcf.channelAccess rxModule "\"^.^.rx\""
scalar Spoofing.node[11].wlan[0].mac.dcf.channelAccess channelOwnershipChanged:count 2
attr interpolationmode sample-hold
attr recordingmode count
attr title "channel ownership, count"
par Spoofing.node[11].wlan[0].mac.dcf.originatorMacDataService.fragmentationPolicy typename "\"inet.linklayer.ieee80211.mac.fragmentation.BasicFragmentationPolicy\""
par Spoofing.node[11].wlan[0].mac.dcf.originatorMacDataService.fragmentationPolicy fragmentationThreshold 1500B
attr unit B
[...]
par Spoofing.visualizer.canvasVisualizer.interfaceTableVisualizer nodeFilter "\"*\""
attr mutable ""
par Spoofing.visualizer.canvasVisualizer.interfaceTableVisualizer interfaceFilter "\"not(lo*)\""
attr mutable ""
par Spoofing.visualizer.canvasVisualizer.interfaceTableVisualizer format "\"%N %\\\\%a%/%l\""
attr mutable ""
par Spoofing.visualizer.canvasVisualizer.interfaceTableVisualizer placementHint "\"top\""
par Spoofing.visualizer.canvasVisualizer.interfaceTableVisualizer placementPriority 0
par Spoofing.visualizer.canvasVisualizer.interfaceTableVisualizer font "\"<default>\""
par Spoofing.visualizer.canvasVisualizer.interfaceTableVisualizer textColor "\"#005030\""
par Spoofing.visualizer.canvasVisualizer.interfaceTableVisualizer backgroundColor "\"white\""
par Spoofing.visualizer.canvasVisualizer.interfaceTableVisualizer opacity 1
par Spoofing.visualizer.canvasVisualizer.interfaceTableVisualizer zIndex 10
par Spoofing.visualizer.canvasVisualizer.dataLinkVisualizer typename "\"inet.visualizer.canvas.linklayer.DataLinkCanvasVisualizer\""
par Spoofing.visualizer.canvasVisualizer.dataLinkVisualizer visualizationTargetModule "\"^.^.^\""
par Spoofing.visualizer.canvasVisualizer.dataLinkVisualizer visualizationSubjectModule "\"^.^.^\""
par Spoofing.visualizer.canvasVisualizer.dataLinkVisualizer tags "\"\""
par Spoofing.visualizer.canvasVisualizer.dataLinkVisualizer displayLinks false
par Spoofing.visualizer.canvasVisualizer.dataLinkVisualizer activityLevel "\"service\""
attr enum service,peer,protocol
par Spoofing.visualizer.canvasVisualizer.dataLinkVisualizer nodeFilter "\"*\""
attr mutable ""
par Spoofing.visualizer.canvasVisualizer.dataLinkVisualizer interfaceFilter "\"*\""
attr mutable ""
par Spoofing.visualizer.canvasVisualizer.dataLinkVisualizer packetFilter "(omnetpp::cValueHolder)holder: \"*\""
attr mutable ""
par Spoofing.visualizer.canvasVisualizer.dataLinkVisualizer lineColor "\"darkcyan\""
par Spoofing.visualizer.canvasVisualizer.dataLinkVisualizer lineStyle "\"solid\""
par Spoofing.visualizer.canvasVisualizer.dataLinkVisualizer lineWidth 3
par Spoofing.visualizer.canvasVisualizer.dataLinkVisualizer lineShift 16
par Spoofing.visualizer.canvasVisualizer.dataLinkVisualizer lineShiftMode "\"normal\""
par Spoofing.visualizer.canvasVisualizer.dataLinkVisualizer lineContactSpacing 3
par Spoofing.visualizer.canvasVisualizer.dataLinkVisualizer lineContactMode "\"rectangular\""
attr enum circular,rectangular
par Spoofing.visualizer.canvasVisualizer.dataLinkVisualizer labelFormat "\"%n\""
par Spoofing.visualizer.canvasVisualizer.dataLinkVisualizer labelFont "\"<default>, 8px\""
par Spoofing.visualizer.canvasVisualizer.dataLinkVisualizer labelColor "\"darkcyan\""
par Spoofing.visualizer.canvasVisualizer.dataLinkVisualizer fadeOutMode "\"realTime\""
attr enum realTime,animationTime,simulationTime
par Spoofing.visualizer.canvasVisualizer.dataLinkVisualizer fadeOutTime 1s
attr unit s
par Spoofing.visualizer.canvasVisualizer.dataLinkVisualizer fadeOutAnimationSpeed 0
par Spoofing.visualizer.canvasVisualizer.dataLinkVisualizer holdAnimationTime 0s
attr unit s
par Spoofing.visualizer.canvasVisualizer.dataLinkVisualizer zIndex 2
par Spoofing.visualizer.canvasVisualizer.linkBreakVisualizer typename "\"inet.visualizer.canvas.linklayer.LinkBreakCanvasVisualizer\""
par Spoofing.visualizer.canvasVisualizer.linkBreakVisualizer visualizationTargetModule "\"^.^.^\""
par Spoofing.visualizer.canvasVisualizer.linkBreakVisualizer visualizationSubjectModule "\"^.^.^\""
par Spoofing.visualizer.canvasVisualizer.linkBreakVisualizer tags "\"\""
par Spoofing.visualizer.canvasVisualizer.linkBreakVisualizer displayLinkBreaks false
par Spoofing.visualizer.canvasVisualizer.linkBreakVisualizer nodeFilter "\"*\""
attr mutable ""
par Spoofing.visualizer.canvasVisualizer.linkBreakVisualizer interfaceFilter "\"*\""
attr mutable ""
par Spoofing.visualizer.canvasVisualizer.linkBreakVisualizer packetFilter "(omnetpp::cValueHolder)holder: \"*\""
attr mutable ""
par Spoofing.visualizer.canvasVisualizer.linkBreakVisualizer icon "\"status/stop\""
par Spoofing.visualizer.canvasVisualizer.linkBreakVisualizer iconTintAmount 0
par Spoofing.visualizer.canvasVisualizer.linkBreakVisualizer iconTintColor "\"\""
par Spoofing.visualizer.canvasVisualizer.linkBreakVisualizer fadeOutMode "\"realTime\""
attr enum realTime,animationTime,simulationTime
par Spoofing.visualizer.canvasVisualizer.linkBreakVisualizer fadeOutTime 1s
attr unit s
par Spoofing.visualizer.canvasVisualizer.linkBreakVisualizer fadeOutAnimationSpeed 0
par Spoofing.visualizer.canvasVisualizer.linkBreakVisualizer zIndex 2
par Spoofing.visualizer.canvasVisualizer.ieee80211Visualizer typename "\"inet.visualizer.canvas.linklayer.Ieee80211CanvasVisualizer\""
par Spoofing.visualizer.canvasVisualizer.ieee80211Visualizer visualizationTargetModule "\"^.^.^\""
par Spoofing.visualizer.canvasVisualizer.ieee80211Visualizer visualizationSubjectModule "\"^.^.^\""
par Spoofing.visualizer.canvasVisualizer.ieee80211Visualizer tags "\"\""
par Spoofing.visualizer.canvasVisualizer.ieee80211Visualizer networkNodeVisualizerModule "\"^.networkNodeVisualizer\""
par Spoofing.visualizer.canvasVisualizer.ieee80211Visualizer displayAssociations false
par Spoofing.visualizer.canvasVisualizer.ieee80211Visualizer nodeFilter "\"*\""
attr mutable ""
par Spoofing.visualizer.canvasVisualizer.ieee80211Visualizer interfaceFilter "\"*\""
attr mutable ""
par Spoofing.visualizer.canvasVisualizer.ieee80211Visualizer minPower -85dBm
attr unit dBm
par Spoofing.visualizer.canvasVisualizer.ieee80211Visualizer maxPower -50dBm
attr unit dBm
par Spoofing.visualizer.canvasVisualizer.ieee80211Visualizer icons "\"misc/signal_power_0 misc/signal_power_1 misc/signal_power_2 misc/signal_power_3\""
par Spoofing.visualizer.canvasVisualizer.ieee80211Visualizer iconColor "\"dark\""
attr enum light,dark
par Spoofing.visualizer.canvasVisualizer.ieee80211Visualizer labelFont "\"<default>\""
par Spoofing.visualizer.canvasVisualizer.ieee80211Visualizer labelColor "\"black\""
par Spoofing.visualizer.canvasVisualizer.ieee80211Visualizer placementHint "\"top\""
par Spoofing.visualizer.canvasVisualizer.ieee80211Visualizer placementPriority 0
par Spoofing.visualizer.canvasVisualizer.ieee80211Visualizer zIndex 2
par Spoofing.visualizer.canvasVisualizer.networkRouteVisualizer typename "\"inet.visualizer.canvas.networklayer.NetworkRouteCanvasVisualizer\""
par Spoofing.visualizer.canvasVisualizer.networkRouteVisualizer visualizationTargetModule "\"^.^.^\""
par Spoofing.visualizer.canvasVisualizer.networkRouteVisualizer visualizationSubjectModule "\"^.^.^\""
par Spoofing.visualizer.canvasVisualizer.networkRouteVisualizer tags "\"\""
par Spoofing.visualizer.canvasVisualizer.networkRouteVisualizer displayRoutes false
par Spoofing.visualizer.canvasVisualizer.networkRouteVisualizer startPathSignal "\"packetReceivedFromUpper\""
par Spoofing.visualizer.canvasVisualizer.networkRouteVisualizer extendPathSignal "\"packetReceivedFromLower\""
par Spoofing.visualizer.canvasVisualizer.networkRouteVisualizer endPathSignal "\"packetSentToUpper\""
par Spoofing.visualizer.canvasVisualizer.networkRouteVisualizer nodeFilter "\"*\""
attr mutable ""
par Spoofing.visualizer.canvasVisualizer.networkRouteVisualizer packetFilter "(omnetpp::cValueHolder)holder: \"*\""
attr mutable ""
par Spoofing.visualizer.canvasVisualizer.networkRouteVisualizer lineColor "\"dark\""
attr enum light,dark
par Spoofing.visualizer.canvasVisualizer.networkRouteVisualizer lineStyle "\"solid\""
par Spoofing.visualizer.canvasVisualizer.networkRouteVisualizer lineWidth 3
par Spoofing.visualizer.canvasVisualizer.networkRouteVisualizer lineSmooth false
par Spoofing.visualizer.canvasVisualizer.networkRouteVisualizer lineShift 16
par Spoofing.visualizer.canvasVisualizer.networkRouteVisualizer lineShiftMode "\"normal\""
par Spoofing.visualizer.canvasVisualizer.networkRouteVisualizer lineContactSpacing 3
par Spoofing.visualizer.canvasVisualizer.networkRouteVisualizer lineContactMode "\"rectangular\""
attr enum circular,rectangular
par Spoofing.visualizer.canvasVisualizer.networkRouteVisualizer labelFormat "\"%n\""
par Spoofing.visualizer.canvasVisualizer.networkRouteVisualizer labelFont "\"<default>, 8px\""
par Spoofing.visualizer.canvasVisualizer.networkRouteVisualizer labelColor "\"\""
par Spoofing.visualizer.canvasVisualizer.networkRouteVisualizer fadeOutMode "\"realTime\""
attr enum realTime,animationTime,simulationTime
par Spoofing.visualizer.canvasVisualizer.networkRouteVisualizer fadeOutTime 1s
attr unit s
par Spoofing.visualizer.canvasVisualizer.networkRouteVisualizer fadeOutAnimationSpeed 0
par Spoofing.visualizer.canvasVisualizer.networkRouteVisualizer zIndex 3
par Spoofing.visualizer.canvasVisualizer.routingTableVisualizer typename "\"inet.visualizer.canvas.networklayer.RoutingTableCanvasVisualizer\""
par Spoofing.visualizer.canvasVisualizer.routingTableVisualizer visualizationTargetModule "\"^.^.^\""
par Spoofing.visualizer.canvasVisualizer.routingTableVisualizer visualizationSubjectModule "\"^.^.^\""
par Spoofing.visualizer.canvasVisualizer.routingTableVisualizer tags "\"\""
par Spoofing.visualizer.canvasVisualizer.routingTableVisualizer displayRoutingTables false
par Spoofing.visualizer.canvasVisualizer.routingTableVisualizer displayRoutesIndividually true
par Spoofing.visualizer.canvasVisualizer.routingTableVisualizer displayLabels true
par Spoofing.visualizer.canvasVisualizer.routingTableVisualizer destinationFilter "\"*\""
attr mutable ""
par Spoofing.visualizer.canvasVisualizer.routingTableVisualizer nodeFilter "\"*\""
attr mutable ""
par Spoofing.visualizer.canvasVisualizer.routingTableVisualizer lineColor "\"black\""
par Spoofing.visualizer.canvasVisualizer.routingTableVisualizer lineStyle "\"solid\""
par Spoofing.visualizer.canvasVisualizer.routingTableVisualizer lineWidth 2
par Spoofing.visualizer.canvasVisualizer.routingTableVisualizer lineShift 16
par Spoofing.visualizer.canvasVisualizer.routingTableVisualizer lineShiftMode "\"normal\""
par Spoofing.visualizer.canvasVisualizer.routingTableVisualizer lineContactSpacing 3
par Spoofing.visualizer.canvasVisualizer.routingTableVisualizer lineContactMode "\"rectangular\""
attr enum circular,rectangular
par Spoofing.visualizer.canvasVisualizer.routingTableVisualizer labelFormat "\"%d/%m -> %g (%n)\""
attr mutable ""
par Spoofing.visualizer.canvasVisualizer.routingTableVisualizer labelFont "\"<default>, 8px\""
par Spoofing.visualizer.canvasVisualizer.routingTableVisualizer labelColor "\"black\""
par Spoofing.visualizer.canvasVisualizer.routingTableVisualizer zIndex 0
par Spoofing.visualizer.canvasVisualizer.transportRouteVisualizer typename "\"inet.visualizer.canvas.transportlayer.TransportRouteCanvasVisualizer\""
par Spoofing.visualizer.canvasVisualizer.transportRouteVisualizer visualizationTargetModule "\"^.^.^\""
par Spoofing.visualizer.canvasVisualizer.transportRouteVisualizer visualizationSubjectModule "\"^.^.^\""
par Spoofing.visualizer.canvasVisualizer.transportRouteVisualizer tags "\"\""
par Spoofing.visualizer.canvasVisualizer.transportRouteVisualizer displayRoutes false
par Spoofing.visualizer.canvasVisualizer.transportRouteVisualizer startPathSignal "\"packetReceivedFromUpper\""
par Spoofing.visualizer.canvasVisualizer.transportRouteVisualizer extendPathSignal "\"packetReceivedFromLower\""
par Spoofing.visualizer.canvasVisualizer.transportRouteVisualizer endPathSignal "\"packetSentToUpper\""
par Spoofing.visualizer.canvasVisualizer.transportRouteVisualizer nodeFilter "\"*\""
attr mutable ""
par Spoofing.visualizer.canvasVisualizer.transportRouteVisualizer packetFilter "(omnetpp::cValueHolder)holder: \"*\""
attr mutable ""
par Spoofing.visualizer.canvasVisualizer.transportRouteVisualizer lineColor "\"dark\""
attr enum light,dark
par Spoofing.visualizer.canvasVisualizer.transportRouteVisualizer lineStyle "\"solid\""
par Spoofing.visualizer.canvasVisualizer.transportRouteVisualizer lineWidth 3
par Spoofing.visualizer.canvasVisualizer.transportRouteVisualizer lineSmooth false
par Spoofing.visualizer.canvasVisualizer.transportRouteVisualizer lineShift 16
par Spoofing.visualizer.canvasVisualizer.transportRouteVisualizer lineShiftMode "\"normal\""
par Spoofing.visualizer.canvasVisualizer.transportRouteVisualizer lineContactSpacing 3
par Spoofing.visualizer.canvasVisualizer.transportRouteVisualizer lineContactMode "\"rectangular\""
attr enum circular,rectangular
par Spoofing.visualizer.canvasVisualizer.transportRouteVisualizer labelFormat "\"%n\""
par Spoofing.visualizer.canvasVisualizer.transportRouteVisualizer labelFont "\"<default>, 8px\""
par Spoofing.visualizer.canvasVisualizer.transportRouteVisualizer labelColor "\"\""
par Spoofing.visualizer.canvasVisualizer.transportRouteVisualizer fadeOutMode "\"realTime\""
attr enum realTime,animationTime,simulationTime
par Spoofing.visualizer.canvasVisualizer.transportRouteVisualizer fadeOutTime 1s
attr unit s
par Spoofing.visualizer.canvasVisualizer.transportRouteVisualizer fadeOutAnimationSpeed 0
par Spoofing.visualizer.canvasVisualizer.transportRouteVisualizer zIndex 4
par Spoofing.visualizer.canvasVisualizer.transportConnectionVisualizer typename "\"inet.visualizer.canvas.transportlayer.TransportConnectionCanvasVisualizer\""
par Spoofing.visualizer.canvasVisualizer.transportConnectionVisualizer visualizationTargetModule "\"^.^.^\""
par Spoofing.visualizer.canvasVisualizer.transportConnectionVisualizer visualizationSubjectModule "\"^.^.^\""
par Spoofing.visualizer.canvasVisualizer.transportConnectionVisualizer tags "\"\""
par Spoofing.visualizer.canvasVisualizer.transportConnectionVisualizer networkNodeVisualizerModule "\"^.networkNodeVisualizer\""
par Spoofing.visualizer.canvasVisualizer.transportConnectionVisualizer displayTransportConnections false
par Spoofing.visualizer.canvasVisualizer.transportConnectionVisualizer sourceNodeFilter "\"*\""
attr mutable ""
par Spoofing.visualizer.canvasVisualizer.transportConnectionVisualizer sourcePortFilter "\"*\""
attr mutable ""
par Spoofing.visualizer.canvasVisualizer.transportConnectionVisualizer destinationNodeFilter "\"*\""
attr mutable ""
par Spoofing.visualizer.canvasVisualizer.transportConnectionVisualizer destinationPortFilter "\"*\""
attr mutable ""
par Spoofing.visualizer.canvasVisualizer.transportConnectionVisualizer icon "\"misc/marker_s\""
par Spoofing.visualizer.canvasVisualizer.transportConnectionVisualizer iconColor "\"dark\""
attr enum light,dark
par Spoofing.visualizer.canvasVisualizer.transportConnectionVisualizer labelFont "\"<default>\""
par Spoofing.visualizer.canvasVisualizer.transportConnectionVisualizer labelColor "\"black\""
par Spoofing.visualizer.canvasVisualizer.transportConnectionVisualizer placementHint "\"top\""
par Spoofing.visualizer.canvasVisualizer.transportConnectionVisualizer placementPriority 0
par Spoofing.visualizer.canvasVisualizer.transportConnectionVisualizer zIndex 4
par Spoofing.visualizer.canvasVisualizer.failureProtectionConfigurationVisualizer typename "\"inet.visualizer.canvas.configurator.FailureProtectionConfigurationCanvasVisualizer\""
par Spoofing.visualizer.canvasVisualizer.failureProtectionConfigurationVisualizer visualizationTargetModule "\"^.^.^\""
par Spoofing.visualizer.canvasVisualizer.failureProtectionConfigurationVisualizer visualizationSubjectModule "\"^.^.^\""
par Spoofing.visualizer.canvasVisualizer.failureProtectionConfigurationVisualizer tags "\"\""
par Spoofing.visualizer.canvasVisualizer.failureProtectionConfigurationVisualizer displayTrees false
par Spoofing.visualizer.canvasVisualizer.failureProtectionConfigurationVisualizer lineColor "\"dark\""
attr enum light,dark
par Spoofing.visualizer.canvasVisualizer.failureProtectionConfigurationVisualizer lineStyle "\"solid\""
par Spoofing.visualizer.canvasVisualizer.failureProtectionConfigurationVisualizer lineWidth 3
par Spoofing.visualizer.canvasVisualizer.failureProtectionConfigurationVisualizer lineSmooth false
par Spoofing.visualizer.canvasVisualizer.failureProtectionConfigurationVisualizer lineShift 16
par Spoofing.visualizer.canvasVisualizer.failureProtectionConfigurationVisualizer lineShiftMode "\"normal\""
par Spoofing.visualizer.canvasVisualizer.failureProtectionConfigurationVisualizer lineContactSpacing 3
par Spoofing.visualizer.canvasVisualizer.failureProtectionConfigurationVisualizer lineContactMode "\"rectangular\""
attr enum circular,rectangular
par Spoofing.visualizer.canvasVisualizer.failureProtectionConfigurationVisualizer failureProtectionConfiguratorModule "\"failureProtectionConfigurator\""
par Spoofing.visualizer.canvasVisualizer.failureProtectionConfigurationVisualizer streamFilter "\"*\""
par Spoofing.visualizer.canvasVisualizer.failureProtectionConfigurationVisualizer zIndex 3
par Spoofing.visualizer.canvasVisualizer.streamRedundancyConfigurationVisualizer typename "\"inet.visualizer.canvas.configurator.StreamRedundancyConfigurationCanvasVisualizer\""
par Spoofing.visualizer.canvasVisualizer.streamRedundancyConfigurationVisualizer visualizationTargetModule "\"^.^.^\""
par Spoofing.visualizer.canvasVisualizer.streamRedundancyConfigurationVisualizer visualizationSubjectModule "\"^.^.^\""
par Spoofing.visualizer.canvasVisualizer.streamRedundancyConfigurationVisualizer tags "\"\""
par Spoofing.visualizer.canvasVisualizer.streamRedundancyConfigurationVisualizer displayTrees false
par Spoofing.visualizer.canvasVisualizer.streamRedundancyConfigurationVisualizer lineColor "\"dark\""
attr enum light,dark
par Spoofing.visualizer.canvasVisualizer.streamRedundancyConfigurationVisualizer lineStyle "\"solid\""
par Spoofing.visualizer.canvasVisualizer.streamRedundancyConfigurationVisualizer lineWidth 3
par Spoofing.visualizer.canvasVisualizer.streamRedundancyConfigurationVisualizer lineSmooth false
par Spoofing.visualizer.canvasVisualizer.streamRedundancyConfigurationVisualizer lineShift 16
par Spoofing.visualizer.canvasVisualizer.streamRedundancyConfigurationVisualizer lineShiftMode "\"normal\""
par Spoofing.visualizer.canvasVisualizer.streamRedundancyConfigurationVisualizer lineContactSpacing 3
par Spoofing.visualizer.canvasVisualizer.streamRedundancyConfigurationVisualizer lineContactMode "\"rectangular\""
attr enum circular,rectangular
par Spoofing.visualizer.canvasVisualizer.streamRedundancyConfigurationVisualizer streamRedundancyConfiguratorModule "\"streamRedundancyConfigurator\""
par Spoofing.visualizer.canvasVisualizer.streamRedundancyConfigurationVisualizer streamFilter "\"*\""
par Spoofing.visualizer.canvasVisualizer.streamRedundancyConfigurationVisualizer zIndex 3
par Spoofing.visualizer.canvasVisualizer typename "\"inet.visualizer.canvas.integrated.IntegratedCanvasVisualizer\""
par Spoofing.visualizer typename "\"inet.visualizer.common.IntegratedVisualizer\""
par Spoofing.physicalEnvironment typename "\"inet.environment.common.PhysicalEnvironment\""
par Spoofing.physicalEnvironment coordinateSystemModule "\"\""
par Spoofing.physicalEnvironment temperature 293K
attr unit K
par Spoofing.physicalEnvironment spaceMinX "nan m"
attr unit m
par Spoofing.physicalEnvironment spaceMinY "nan m"
attr unit m
par Spoofing.physicalEnvironment spaceMinZ "nan m"
attr unit m
par Spoofing.physicalEnvironment spaceMaxX "nan m"
attr unit m
par Spoofing.physicalEnvironment spaceMaxY "nan m"
attr unit m
par Spoofing.physicalEnvironment spaceMaxZ "nan m"
attr unit m
par Spoofing.physicalEnvironment config "<config/> at content:1"
par Spoofing.roadsCanvasVisualizer typename "\"org.car2x.veins.visualizer.roads.RoadsCanvasVisualizer\""
par Spoofing.roadsCanvasVisualizer enabled true
par Spoofing.roadsCanvasVisualizer lineZIndex -1
par Spoofing.roadsCanvasVisualizer lineColor "\"firebrick4\""
par Spoofing.roadsCanvasVisualizer lineWidth 1
par Spoofing.roadsCanvasVisualizer lineWidthZoom false
par Spoofing typename "\"spoofing.examples.veins_inet.Spoofing\""
par Spoofing useOsg false

